<?xml version="1.0" encoding="UTF-8"?>

<!-- generated on 2024-07-04 21:31:09.947822 by osmWebWizard.py UNKNOWN
<configuration>
    <net-file value="/opt/homebrew/Cellar/sumo/1.20.0/share/sumo/tools/2024-07-04-21-31-06/Traffic_Net.net.xml.gz"/>
    <output-trip-file value="/opt/homebrew/Cellar/sumo/1.20.0/share/sumo/tools/2024-07-04-21-31-06/osm.passenger.trips.xml"/>
    <route-file value="/opt/homebrew/Cellar/sumo/1.20.0/share/sumo/tools/2024-07-04-21-31-06/osm.passenger.rou.xml"/>
    <prefix value="veh"/>
    <trip-attributes value="departLane=&quot;best&quot;"/>
    <fringe-start-attributes value="departSpeed=&quot;max&quot;"/>
    <vehicle-class value="passenger"/>
    <lanes value="True"/>
    <fringe-factor value="5"/>
    <allow-fringe.min-length value="1000.0"/>
    <via-edge-types value="highway.motorway,highway.motorway_link,highway.trunk_link,highway.primary_link,highway.secondary_link,highway.tertiary_link"/>
    <min-distance value="300.0"/>
    <min-distance.fringe value="10.0"/>
    <remove-loops value="True"/>
    <validate value="True"/>
    <insertion-density value="12.0"/>
</configuration>
-->

<!-- generated on 2024-07-04 21:31:09 by Eclipse SUMO duarouter Version 1.20.0
<configuration xmlns:xsi="http://www.w3.org/2001/XMLSchema-instance" xsi:noNamespaceSchemaLocation="http://sumo.dlr.de/xsd/duarouterConfiguration.xsd">

    <input>
        <net-file value="/opt/homebrew/Cellar/sumo/1.20.0/share/sumo/tools/2024-07-04-21-31-06/Traffic_Net.net.xml.gz"/>
        <route-files value="/opt/homebrew/Cellar/sumo/1.20.0/share/sumo/tools/2024-07-04-21-31-06/osm.passenger.trips.xml"/>
    </input>

    <output>
        <output-file value="/opt/homebrew/Cellar/sumo/1.20.0/share/sumo/tools/2024-07-04-21-31-06/osm.passenger.trips.xml.tmp"/>
        <alternatives-output value="NUL"/>
        <write-trips value="true"/>
    </output>

    <processing>
        <remove-loops value="true"/>
    </processing>

    <time>
        <begin value="0.0"/>
        <end value="3600.0"/>
    </time>

    <report>
        <no-warnings value="true"/>
        <ignore-errors value="true"/>
        <no-step-log value="true"/>
    </report>

</configuration>
-->

<routes xmlns:xsi="http://www.w3.org/2001/XMLSchema-instance" xsi:noNamespaceSchemaLocation="http://sumo.dlr.de/xsd/routes_file.xsd">
    <vType id="veh_passenger" vClass="passenger"/>
    <trip id="veh0" type="veh_passenger" depart="0.00" departLane="best" departSpeed="max" from="32239376" to="124100055"/>
    <trip id="veh1" type="veh_passenger" depart="0.77" departLane="best" departSpeed="max" from="166999374" to="390068481#2"/>
    <trip id="veh2" type="veh_passenger" depart="1.54" departLane="best" departSpeed="max" from="406262791" to="860695122"/>
    <trip id="veh3" type="veh_passenger" depart="2.31" departLane="best" departSpeed="max" from="866534297#0" to="166901997"/>
    <trip id="veh4" type="veh_passenger" depart="3.08" departLane="best" departSpeed="max" from="172085152" to="124100055"/>
    <trip id="veh6" type="veh_passenger" depart="4.62" departLane="best" departSpeed="max" from="1024138663" to="390068481#2"/>
    <trip id="veh8" type="veh_passenger" depart="6.16" departLane="best" departSpeed="max" from="166858623" to="524320252"/>
    <trip id="veh11" type="veh_passenger" depart="8.47" departLane="best" departSpeed="max" from="167909700" to="28825389"/>
    <trip id="veh12" type="veh_passenger" depart="9.24" departLane="best" departSpeed="max" from="866543941" to="397970464"/>
    <trip id="veh16" type="veh_passenger" depart="12.32" departLane="best" departSpeed="max" from="32007090" to="982406314"/>
    <trip id="veh17" type="veh_passenger" depart="13.09" departLane="best" departSpeed="max" from="172060141" to="43224614"/>
    <trip id="veh18" type="veh_passenger" depart="13.86" departLane="best" departSpeed="max" from="861037667" to="520217588"/>
    <trip id="veh19" type="veh_passenger" depart="14.63" departLane="best" departSpeed="max" from="402487307" to="124100055"/>
    <trip id="veh21" type="veh_passenger" depart="16.17" departLane="best" departSpeed="max" from="148238614" to="397529221"/>
    <trip id="veh22" type="veh_passenger" depart="16.94" departLane="best" departSpeed="max" from="156414916" to="397530129"/>
    <trip id="veh23" type="veh_passenger" depart="17.71" departLane="best" departSpeed="max" from="32239376" to="397977603"/>
    <trip id="veh24" type="veh_passenger" depart="18.48" departLane="best" departSpeed="max" from="172060141" to="390068481#2"/>
    <trip id="veh25" type="veh_passenger" depart="19.25" departLane="best" departSpeed="max" from="166999374" to="974015689"/>
    <trip id="veh27" type="veh_passenger" depart="20.79" departLane="best" departSpeed="max" from="156414923" to="864051443"/>
    <trip id="veh29" type="veh_passenger" depart="22.33" departLane="best" departSpeed="max" from="866543941" to="77498015"/>
    <trip id="veh30" type="veh_passenger" depart="23.10" departLane="best" departSpeed="max" from="32007090" to="860695122"/>
    <trip id="veh31" type="veh_passenger" depart="23.87" departLane="best" departSpeed="max" from="861037667" to="864051443"/>
    <trip id="veh32" type="veh_passenger" depart="24.64" departLane="best" departSpeed="max" from="166858623" to="124100055"/>
    <trip id="veh34" type="veh_passenger" depart="26.17" departLane="best" departSpeed="max" from="166858623" to="974015689"/>
    <trip id="veh35" type="veh_passenger" depart="26.94" departLane="best" departSpeed="max" from="861037667" to="397551522"/>
    <trip id="veh36" type="veh_passenger" depart="27.71" departLane="best" departSpeed="max" from="397529532" to="398010317"/>
    <trip id="veh37" type="veh_passenger" depart="28.48" departLane="best" departSpeed="max" from="866534297#0" to="4055896"/>
    <trip id="veh38" type="veh_passenger" depart="29.25" departLane="best" departSpeed="max" from="166999374" to="397529221"/>
    <trip id="veh39" type="veh_passenger" depart="30.02" departLane="best" departSpeed="max" from="32007090" to="397529221"/>
    <trip id="veh40" type="veh_passenger" depart="30.79" departLane="best" departSpeed="max" from="32239366" to="886996605"/>
    <trip id="veh41" type="veh_passenger" depart="31.56" departLane="best" departSpeed="max" from="172060174" to="390068481#2"/>
    <trip id="veh43" type="veh_passenger" depart="33.10" departLane="best" departSpeed="max" from="148238614" to="124100055"/>
    <trip id="veh45" type="veh_passenger" depart="34.64" departLane="best" departSpeed="max" from="764879498" to="405488907"/>
    <trip id="veh46" type="veh_passenger" depart="35.41" departLane="best" departSpeed="max" from="125450474" to="398010317"/>
    <trip id="veh47" type="veh_passenger" depart="36.18" departLane="best" departSpeed="max" from="866543941" to="43224614"/>
    <trip id="veh48" type="veh_passenger" depart="36.95" departLane="best" departSpeed="max" from="866543941" to="885022832"/>
    <trip id="veh49" type="veh_passenger" depart="37.72" departLane="best" departSpeed="max" from="1002938997" to="860695122"/>
    <trip id="veh50" type="veh_passenger" depart="38.49" departLane="best" departSpeed="max" from="397984030" to="43224614"/>
    <trip id="veh52" type="veh_passenger" depart="40.03" departLane="best" departSpeed="max" from="156414916" to="405488907"/>
    <trip id="veh53" type="veh_passenger" depart="40.80" departLane="best" departSpeed="max" from="185027333" to="982406314"/>
    <trip id="veh54" type="veh_passenger" depart="41.57" departLane="best" departSpeed="max" from="861037667" to="397530129"/>
    <trip id="veh55" type="veh_passenger" depart="42.34" departLane="best" departSpeed="max" from="27209873" to="368896499"/>
    <trip id="veh56" type="veh_passenger" depart="43.11" departLane="best" departSpeed="max" from="866534297#0" to="885077905#0"/>
    <trip id="veh58" type="veh_passenger" depart="44.65" departLane="best" departSpeed="max" from="32239366" to="28825389"/>
    <trip id="veh62" type="veh_passenger" depart="47.73" departLane="best" departSpeed="max" from="861037667" to="885022832"/>
    <trip id="veh63" type="veh_passenger" depart="48.50" departLane="best" departSpeed="max" from="167701805" to="124100055"/>
    <trip id="veh64" type="veh_passenger" depart="49.27" departLane="best" departSpeed="max" from="861037667" to="974015689"/>
    <trip id="veh66" type="veh_passenger" depart="50.81" departLane="best" departSpeed="max" from="148238614" to="864051443"/>
    <trip id="veh67" type="veh_passenger" depart="51.58" departLane="best" departSpeed="max" from="406499369" to="172162217"/>
    <trip id="veh68" type="veh_passenger" depart="52.35" departLane="best" departSpeed="max" from="185027345" to="43224614"/>
    <trip id="veh69" type="veh_passenger" depart="53.12" departLane="best" departSpeed="max" from="166999374" to="885077905#0"/>
    <trip id="veh70" type="veh_passenger" depart="53.89" departLane="best" departSpeed="max" from="172085152" to="390068481#2"/>
    <trip id="veh71" type="veh_passenger" depart="54.66" departLane="best" departSpeed="max" from="32007090" to="864051443"/>
    <trip id="veh73" type="veh_passenger" depart="56.20" departLane="best" departSpeed="max" from="866543941" to="77498015"/>
    <trip id="veh74" type="veh_passenger" depart="56.97" departLane="best" departSpeed="max" from="185027333" to="406270407"/>
    <trip id="veh76" type="veh_passenger" depart="58.51" departLane="best" departSpeed="max" from="167909700" to="524320252"/>
    <trip id="veh77" type="veh_passenger" depart="59.28" departLane="best" departSpeed="max" from="166901985" to="390068481#2"/>
    <trip id="veh78" type="veh_passenger" depart="60.05" departLane="best" departSpeed="max" from="148238614" to="77467088"/>
    <trip id="veh79" type="veh_passenger" depart="60.82" departLane="best" departSpeed="max" from="166858623" to="886996605"/>
    <trip id="veh80" type="veh_passenger" depart="61.59" departLane="best" departSpeed="max" from="861037667" to="156414913"/>
    <trip id="veh81" type="veh_passenger" depart="62.36" departLane="best" departSpeed="max" from="166901985" to="859289725"/>
    <trip id="veh83" type="veh_passenger" depart="63.90" departLane="best" departSpeed="max" from="866534297#0" to="520217588"/>
    <trip id="veh84" type="veh_passenger" depart="64.67" departLane="best" departSpeed="max" from="185027345" to="866539436"/>
    <trip id="veh86" type="veh_passenger" depart="66.21" departLane="best" departSpeed="max" from="156414916" to="405488907"/>
    <trip id="veh87" type="veh_passenger" depart="66.98" departLane="best" departSpeed="max" from="402506342" to="859289725"/>
    <trip id="veh88" type="veh_passenger" depart="67.75" departLane="best" departSpeed="max" from="866543941" to="166901997"/>
    <trip id="veh90" type="veh_passenger" depart="69.29" departLane="best" departSpeed="max" from="861037667" to="397529221"/>
    <trip id="veh94" type="veh_passenger" depart="72.37" departLane="best" departSpeed="max" from="185027333" to="885022832"/>
    <trip id="veh95" type="veh_passenger" depart="73.14" departLane="best" departSpeed="max" from="32007090" to="124100055"/>
    <trip id="veh96" type="veh_passenger" depart="73.91" departLane="best" departSpeed="max" from="866543941" to="885022832"/>
    <trip id="veh97" type="veh_passenger" depart="74.68" departLane="best" departSpeed="max" from="866543941" to="974015689"/>
    <trip id="veh99" type="veh_passenger" depart="76.22" departLane="best" departSpeed="max" from="27209843" to="390068481#2"/>
    <trip id="veh100" type="veh_passenger" depart="76.98" departLane="best" departSpeed="max" from="172060174" to="124100055"/>
    <trip id="veh101" type="veh_passenger" depart="77.75" departLane="best" departSpeed="max" from="172060141" to="982800440"/>
    <trip id="veh102" type="veh_passenger" depart="78.52" departLane="best" departSpeed="max" from="166999374" to="866539436"/>
    <trip id="veh103" type="veh_passenger" depart="79.29" departLane="best" departSpeed="max" from="185027333" to="405488907"/>
    <trip id="veh104" type="veh_passenger" depart="80.06" departLane="best" departSpeed="max" from="866543941" to="982800440"/>
    <trip id="veh105" type="veh_passenger" depart="80.83" departLane="best" departSpeed="max" from="32007090" to="860695122"/>
    <trip id="veh106" type="veh_passenger" depart="81.60" departLane="best" departSpeed="max" from="156414920" to="397551522"/>
    <trip id="veh107" type="veh_passenger" depart="82.37" departLane="best" departSpeed="max" from="866543941" to="524320252"/>
    <trip id="veh108" type="veh_passenger" depart="83.14" departLane="best" departSpeed="max" from="32007090" to="864051443"/>
    <trip id="veh109" type="veh_passenger" depart="83.91" departLane="best" departSpeed="max" from="1115408136" to="524320252"/>
    <trip id="veh110" type="veh_passenger" depart="84.68" departLane="best" departSpeed="max" from="27209873" to="885022832"/>
    <trip id="veh112" type="veh_passenger" depart="86.22" departLane="best" departSpeed="max" from="148238614" to="390068481#2"/>
    <trip id="veh113" type="veh_passenger" depart="86.99" departLane="best" departSpeed="max" from="32239366" to="860695122"/>
    <trip id="veh114" type="veh_passenger" depart="87.76" departLane="best" departSpeed="max" from="166901985" to="172162217"/>
    <trip id="veh115" type="veh_passenger" depart="88.53" departLane="best" departSpeed="max" from="866534297#0" to="397529221"/>
    <trip id="veh117" type="veh_passenger" depart="90.07" departLane="best" departSpeed="max" from="172085152" to="524320252"/>
    <trip id="veh118" type="veh_passenger" depart="90.84" departLane="best" departSpeed="max" from="32007090" to="974015689"/>
    <trip id="veh119" type="veh_passenger" depart="91.61" departLane="best" departSpeed="max" from="156414927" to="860695122"/>
    <trip id="veh122" type="veh_passenger" depart="93.92" departLane="best" departSpeed="max" from="167701805" to="864051443"/>
    <trip id="veh123" type="veh_passenger" depart="94.69" departLane="best" departSpeed="max" from="148238614" to="4055896"/>
    <trip id="veh124" type="veh_passenger" depart="95.46" departLane="best" departSpeed="max" from="866543941" to="982800440"/>
    <trip id="veh125" type="veh_passenger" depart="96.23" departLane="best" departSpeed="max" from="148238614" to="390068481#2"/>
    <trip id="veh126" type="veh_passenger" depart="97.00" departLane="best" departSpeed="max" from="166999374" to="974015689"/>
    <trip id="veh127" type="veh_passenger" depart="97.77" departLane="best" departSpeed="max" from="861037667" to="885077905#0"/>
    <trip id="veh128" type="veh_passenger" depart="98.54" departLane="best" departSpeed="max" from="172060141" to="28825389"/>
    <trip id="veh129" type="veh_passenger" depart="99.31" departLane="best" departSpeed="max" from="77467075" to="860695122"/>
    <trip id="veh130" type="veh_passenger" depart="100.08" departLane="best" departSpeed="max" from="32239366" to="982800440"/>
    <trip id="veh131" type="veh_passenger" depart="100.85" departLane="best" departSpeed="max" from="32239376" to="1085743378"/>
    <trip id="veh132" type="veh_passenger" depart="101.62" departLane="best" departSpeed="max" from="397529532" to="974015689"/>
    <trip id="veh136" type="veh_passenger" depart="104.70" departLane="best" departSpeed="max" from="402506342" to="390068481#2"/>
    <trip id="veh137" type="veh_passenger" depart="105.47" departLane="best" departSpeed="max" from="32239376" to="397530129"/>
    <trip id="veh138" type="veh_passenger" depart="106.24" departLane="best" departSpeed="max" from="27209843" to="886996605"/>
    <trip id="veh139" type="veh_passenger" depart="107.01" departLane="best" departSpeed="max" from="861037667" to="166901997"/>
    <trip id="veh141" type="veh_passenger" depart="108.55" departLane="best" departSpeed="max" from="1002938997" to="864051443"/>
    <trip id="veh144" type="veh_passenger" depart="110.86" departLane="best" departSpeed="max" from="866534297#0" to="43224614"/>
    <trip id="veh145" type="veh_passenger" depart="111.63" departLane="best" departSpeed="max" from="77467075" to="524320252"/>
    <trip id="veh146" type="veh_passenger" depart="112.40" departLane="best" departSpeed="max" from="156414920" to="172162217"/>
    <trip id="veh147" type="veh_passenger" depart="113.17" departLane="best" departSpeed="max" from="167701805" to="886996605"/>
    <trip id="veh149" type="veh_passenger" depart="114.71" departLane="best" departSpeed="max" from="866534297#0" to="390068481#2"/>
    <trip id="veh150" type="veh_passenger" depart="115.48" departLane="best" departSpeed="max" from="734348793#0" to="885077905#0"/>
    <trip id="veh153" type="veh_passenger" depart="117.79" departLane="best" departSpeed="max" from="861037667" to="982406314"/>
    <trip id="veh155" type="veh_passenger" depart="119.33" departLane="best" departSpeed="max" from="1024138663" to="864051443"/>
    <trip id="veh156" type="veh_passenger" depart="120.10" departLane="best" departSpeed="max" from="167909700" to="974015689"/>
    <trip id="veh160" type="veh_passenger" depart="123.18" departLane="best" departSpeed="max" from="861037667" to="885022832"/>
    <trip id="veh161" type="veh_passenger" depart="123.95" departLane="best" departSpeed="max" from="166858623" to="866539436"/>
    <trip id="veh164" type="veh_passenger" depart="126.26" departLane="best" departSpeed="max" from="1024138663" to="390068481#2"/>
    <trip id="veh165" type="veh_passenger" depart="127.03" departLane="best" departSpeed="max" from="167909700" to="885077905#0"/>
    <trip id="veh166" type="veh_passenger" depart="127.79" departLane="best" departSpeed="max" from="866543941" to="397530129"/>
    <trip id="veh168" type="veh_passenger" depart="129.33" departLane="best" departSpeed="max" from="866543941" to="43224614"/>
    <trip id="veh169" type="veh_passenger" depart="130.10" departLane="best" departSpeed="max" from="866534297#0" to="172085150"/>
    <trip id="veh170" type="veh_passenger" depart="130.87" departLane="best" departSpeed="max" from="866543941" to="368896499"/>
    <trip id="veh171" type="veh_passenger" depart="131.64" departLane="best" departSpeed="max" from="866543941" to="397530129"/>
    <trip id="veh172" type="veh_passenger" depart="132.41" departLane="best" departSpeed="max" from="156414916" to="405488907"/>
    <trip id="veh173" type="veh_passenger" depart="133.18" departLane="best" departSpeed="max" from="402506342" to="397551522"/>
    <trip id="veh175" type="veh_passenger" depart="134.72" departLane="best" departSpeed="max" from="172060141" to="520217588"/>
    <trip id="veh176" type="veh_passenger" depart="135.49" departLane="best" departSpeed="max" from="166999195" to="860695122"/>
    <trip id="veh178" type="veh_passenger" depart="137.03" departLane="best" departSpeed="max" from="32007090" to="860695122"/>
    <trip id="veh179" type="veh_passenger" depart="137.80" departLane="best" departSpeed="max" from="406262791" to="859289725"/>
    <trip id="veh180" type="veh_passenger" depart="138.57" departLane="best" departSpeed="max" from="168755938" to="156414913"/>
    <trip id="veh181" type="veh_passenger" depart="139.34" departLane="best" departSpeed="max" from="397529532" to="397970464"/>
    <trip id="veh183" type="veh_passenger" depart="140.88" departLane="best" departSpeed="max" from="402506342" to="397551522"/>
    <trip id="veh184" type="veh_passenger" depart="141.65" departLane="best" departSpeed="max" from="167701805" to="402487308"/>
    <trip id="veh187" type="veh_passenger" depart="143.96" departLane="best" departSpeed="max" from="866534297#0" to="860695122"/>
    <trip id="veh189" type="veh_passenger" depart="145.50" departLane="best" departSpeed="max" from="167701805" to="43224614"/>
    <trip id="veh190" type="veh_passenger" depart="146.27" departLane="best" departSpeed="max" from="1002938997" to="397544426"/>
    <trip id="veh191" type="veh_passenger" depart="147.04" departLane="best" departSpeed="max" from="182315105" to="524320252"/>
    <trip id="veh192" type="veh_passenger" depart="147.81" departLane="best" departSpeed="max" from="32239376" to="4055896"/>
    <trip id="veh193" type="veh_passenger" depart="148.58" departLane="best" departSpeed="max" from="185027333" to="390068481#2"/>
    <trip id="veh194" type="veh_passenger" depart="149.35" departLane="best" departSpeed="max" from="185027345" to="886996605"/>
    <trip id="veh198" type="veh_passenger" depart="152.43" departLane="best" departSpeed="max" from="77467075" to="864051443"/>
    <trip id="veh199" type="veh_passenger" depart="153.20" departLane="best" departSpeed="max" from="397529532" to="390068481#2"/>
    <trip id="veh200" type="veh_passenger" depart="153.97" departLane="best" departSpeed="max" from="156414927" to="124100055"/>
    <trip id="veh202" type="veh_passenger" depart="155.51" departLane="best" departSpeed="max" from="861037667" to="156414913"/>
    <trip id="veh204" type="veh_passenger" depart="157.05" departLane="best" departSpeed="max" from="156414927" to="860695122"/>
    <trip id="veh205" type="veh_passenger" depart="157.82" departLane="best" departSpeed="max" from="27209873" to="397529221"/>
    <trip id="veh207" type="veh_passenger" depart="159.36" departLane="best" departSpeed="max" from="406268300" to="864051443"/>
    <trip id="veh208" type="veh_passenger" depart="160.13" departLane="best" departSpeed="max" from="156414916" to="405488907"/>
    <trip id="veh210" type="veh_passenger" depart="161.67" departLane="best" departSpeed="max" from="32007090" to="124100055"/>
    <trip id="veh211" type="veh_passenger" depart="162.44" departLane="best" departSpeed="max" from="185027333" to="866539436"/>
    <trip id="veh213" type="veh_passenger" depart="163.98" departLane="best" departSpeed="max" from="32239366" to="982406314"/>
    <trip id="veh216" type="veh_passenger" depart="166.29" departLane="best" departSpeed="max" from="77467075" to="43224614"/>
    <trip id="veh217" type="veh_passenger" depart="167.06" departLane="best" departSpeed="max" from="866534297#0" to="864051443"/>
    <trip id="veh218" type="veh_passenger" depart="167.83" departLane="best" departSpeed="max" from="185027345" to="397529221"/>
    <trip id="veh219" type="veh_passenger" depart="168.60" departLane="best" departSpeed="max" from="166901985" to="77498015"/>
    <trip id="veh221" type="veh_passenger" depart="170.14" departLane="best" departSpeed="max" from="32239366" to="397530129"/>
    <trip id="veh222" type="veh_passenger" depart="170.91" departLane="best" departSpeed="max" from="148238614" to="397544426"/>
    <trip id="veh223" type="veh_passenger" depart="171.68" departLane="best" departSpeed="max" from="166999374" to="397970464"/>
    <trip id="veh224" type="veh_passenger" depart="172.45" departLane="best" departSpeed="max" from="32007090" to="172164089"/>
    <trip id="veh225" type="veh_passenger" depart="173.22" departLane="best" departSpeed="max" from="166901985" to="860695122"/>
    <trip id="veh226" type="veh_passenger" depart="173.99" departLane="best" departSpeed="max" from="402487307" to="156414913"/>
    <trip id="veh227" type="veh_passenger" depart="174.76" departLane="best" departSpeed="max" from="172085152" to="43224614"/>
    <trip id="veh228" type="veh_passenger" depart="175.53" departLane="best" departSpeed="max" from="172085152" to="390068481#2"/>
    <trip id="veh229" type="veh_passenger" depart="176.30" departLane="best" departSpeed="max" from="172085152" to="886996605"/>
    <trip id="veh230" type="veh_passenger" depart="177.07" departLane="best" departSpeed="max" from="32239366" to="860695122"/>
    <trip id="veh231" type="veh_passenger" depart="177.84" departLane="best" departSpeed="max" from="861037667" to="864051443"/>
    <trip id="veh232" type="veh_passenger" depart="178.60" departLane="best" departSpeed="max" from="172060141" to="1085743378"/>
    <trip id="veh233" type="veh_passenger" depart="179.37" departLane="best" departSpeed="max" from="168755938" to="864051443"/>
    <trip id="veh234" type="veh_passenger" depart="180.14" departLane="best" departSpeed="max" from="861037667" to="982406314"/>
    <trip id="veh235" type="veh_passenger" depart="180.91" departLane="best" departSpeed="max" from="172085152" to="864051443"/>
    <trip id="veh237" type="veh_passenger" depart="182.45" departLane="best" departSpeed="max" from="166858623" to="390068481#2"/>
    <trip id="veh238" type="veh_passenger" depart="183.22" departLane="best" departSpeed="max" from="182315105" to="124100055"/>
    <trip id="veh239" type="veh_passenger" depart="183.99" departLane="best" departSpeed="max" from="167909700" to="860695122"/>
    <trip id="veh242" type="veh_passenger" depart="186.30" departLane="best" departSpeed="max" from="32239366" to="124100055"/>
    <trip id="veh243" type="veh_passenger" depart="187.07" departLane="best" departSpeed="max" from="172060174" to="520217588"/>
    <trip id="veh247" type="veh_passenger" depart="190.15" departLane="best" departSpeed="max" from="166858623" to="397970464"/>
    <trip id="veh251" type="veh_passenger" depart="193.23" departLane="best" departSpeed="max" from="866543941" to="397977603"/>
    <trip id="veh252" type="veh_passenger" depart="194.00" departLane="best" departSpeed="max" from="32239376" to="866539436"/>
    <trip id="veh253" type="veh_passenger" depart="194.77" departLane="best" departSpeed="max" from="32239376" to="864051443"/>
    <trip id="veh254" type="veh_passenger" depart="195.54" departLane="best" departSpeed="max" from="866543941" to="390068481#2"/>
    <trip id="veh255" type="veh_passenger" depart="196.31" departLane="best" departSpeed="max" from="1002938997" to="28825389"/>
    <trip id="veh256" type="veh_passenger" depart="197.08" departLane="best" departSpeed="max" from="156414919" to="859289725"/>
    <trip id="veh257" type="veh_passenger" depart="197.85" departLane="best" departSpeed="max" from="32007090" to="390068481#2"/>
    <trip id="veh258" type="veh_passenger" depart="198.62" departLane="best" departSpeed="max" from="402487307" to="864051443"/>
    <trip id="veh260" type="veh_passenger" depart="200.16" departLane="best" departSpeed="max" from="406268300" to="172085150"/>
    <trip id="veh261" type="veh_passenger" depart="200.93" departLane="best" departSpeed="max" from="77467075" to="982406314"/>
    <trip id="veh262" type="veh_passenger" depart="201.70" departLane="best" departSpeed="max" from="156414916" to="124100055"/>
    <trip id="veh263" type="veh_passenger" depart="202.47" departLane="best" departSpeed="max" from="167701805" to="860695122"/>
    <trip id="veh264" type="veh_passenger" depart="203.24" departLane="best" departSpeed="max" from="866543941" to="398010317"/>
    <trip id="veh265" type="veh_passenger" depart="204.01" departLane="best" departSpeed="max" from="402506342" to="166901997"/>
    <trip id="veh267" type="veh_passenger" depart="205.55" departLane="best" departSpeed="max" from="156414916" to="864051443"/>
    <trip id="veh271" type="veh_passenger" depart="208.63" departLane="best" departSpeed="max" from="182315105" to="397977603"/>
    <trip id="veh273" type="veh_passenger" depart="210.17" departLane="best" departSpeed="max" from="861037667" to="866539436"/>
    <trip id="veh275" type="veh_passenger" depart="211.71" departLane="best" departSpeed="max" from="32239376" to="866539436"/>
    <trip id="veh276" type="veh_passenger" depart="212.48" departLane="best" departSpeed="max" from="402487307" to="405488907"/>
    <trip id="veh277" type="veh_passenger" depart="213.25" departLane="best" departSpeed="max" from="402506342" to="982406314"/>
    <trip id="veh278" type="veh_passenger" depart="214.02" departLane="best" departSpeed="max" from="166999374" to="866539436"/>
    <trip id="veh280" type="veh_passenger" depart="215.56" departLane="best" departSpeed="max" from="182315105" to="864051443"/>
    <trip id="veh282" type="veh_passenger" depart="217.10" departLane="best" departSpeed="max" from="77467075" to="166901997"/>
    <trip id="veh283" type="veh_passenger" depart="217.87" departLane="best" departSpeed="max" from="861037667" to="397529221"/>
    <trip id="veh285" type="veh_passenger" depart="219.41" departLane="best" departSpeed="max" from="172060141" to="124100055"/>
    <trip id="veh286" type="veh_passenger" depart="220.18" departLane="best" departSpeed="max" from="861037667" to="390068481#2"/>
    <trip id="veh287" type="veh_passenger" depart="220.95" departLane="best" departSpeed="max" from="166858623" to="866539436"/>
    <trip id="veh288" type="veh_passenger" depart="221.72" departLane="best" departSpeed="max" from="167909700" to="885077905#0"/>
    <trip id="veh289" type="veh_passenger" depart="222.49" departLane="best" departSpeed="max" from="402487307" to="397530129"/>
    <trip id="veh291" type="veh_passenger" depart="224.03" departLane="best" departSpeed="max" from="148238614" to="860695122"/>
    <trip id="veh292" type="veh_passenger" depart="224.80" departLane="best" departSpeed="max" from="27209843" to="864051443"/>
    <trip id="veh293" type="veh_passenger" depart="225.57" departLane="best" departSpeed="max" from="402487307" to="77498015"/>
    <trip id="veh294" type="veh_passenger" depart="226.34" departLane="best" departSpeed="max" from="27209843" to="866539436"/>
    <trip id="veh295" type="veh_passenger" depart="227.11" departLane="best" departSpeed="max" from="156414916" to="390068481#2"/>
    <trip id="veh296" type="veh_passenger" depart="227.88" departLane="best" departSpeed="max" from="402487307" to="397551522"/>
    <trip id="veh297" type="veh_passenger" depart="228.65" departLane="best" departSpeed="max" from="32239366" to="4055896"/>
    <trip id="veh298" type="veh_passenger" depart="229.41" departLane="best" departSpeed="max" from="32007090" to="405488907"/>
    <trip id="veh300" type="veh_passenger" depart="230.95" departLane="best" departSpeed="max" from="402487307" to="397530129"/>