<?xml version="1.0" encoding="UTF-8"?>

<!-- generated on 2024-05-06 11:18:41.887699 by osmWebWizard.py v1_19_0+0000-baa66a0f364
<configuration>
    <net-file value="C:\Users\weizi\Sumo\2024-05-06-11-18-40\osm.net.xml.gz"/>
    <output-trip-file value="C:\Users\weizi\Sumo\2024-05-06-11-18-40\osm.passenger.trips.xml"/>
    <route-file value="C:\Users\weizi\Sumo\2024-05-06-11-18-40\osm.passenger.rou.xml"/>
    <prefix value="veh"/>
    <trip-attributes value="departLane=&quot;best&quot;"/>
    <fringe-start-attributes value="departSpeed=&quot;max&quot;"/>
    <vehicle-class value="passenger"/>
    <lanes value="True"/>
    <fringe-factor value="5"/>
    <allow-fringe.min-length value="1000.0"/>
    <via-edge-types value="highway.motorway,highway.motorway_link,highway.trunk_link,highway.primary_link,highway.secondary_link,highway.tertiary_link"/>
    <min-distance value="300.0"/>
    <min-distance.fringe value="10.0"/>
    <remove-loops value="True"/>
    <validate value="True"/>
    <insertion-density value="12.0"/>
</configuration>
-->

<!-- generated on 2024-05-06 11:18:41 by Eclipse SUMO duarouter Version 1.19.0
<configuration xmlns:xsi="http://www.w3.org/2001/XMLSchema-instance" xsi:noNamespaceSchemaLocation="http://sumo.dlr.de/xsd/duarouterConfiguration.xsd">

    <input>
        <net-file value="C:\Users\weizi\Sumo\2024-05-06-11-18-40\osm.net.xml.gz"/>
        <route-files value="C:\Users\weizi\Sumo\2024-05-06-11-18-40\osm.passenger.trips.xml"/>
    </input>

    <output>
        <output-file value="C:\Users\weizi\Sumo\2024-05-06-11-18-40\osm.passenger.trips.xml.tmp"/>
        <alternatives-output value="NUL"/>
        <write-trips value="true"/>
    </output>

    <processing>
        <remove-loops value="true"/>
    </processing>

    <time>
        <begin value="0.0"/>
        <end value="3600.0"/>
    </time>

    <report>
        <no-warnings value="true"/>
        <ignore-errors value="true"/>
        <no-step-log value="true"/>
    </report>

</configuration>
-->

<routes xmlns:xsi="http://www.w3.org/2001/XMLSchema-instance" xsi:noNamespaceSchemaLocation="http://sumo.dlr.de/xsd/routes_file.xsd">
    <vType id="veh_passenger" vClass="passenger"/>
    <trip id="veh1" type="veh_passenger" depart="2.91" departLane="best" departSpeed="max" from="125523530#0" to="123125976"/>
    <trip id="veh6" type="veh_passenger" depart="17.43" departLane="best" departSpeed="max" from="125523530#0" to="123125963"/>
    <trip id="veh8" type="veh_passenger" depart="23.24" departLane="best" departSpeed="max" from="15310476" to="103614021"/>
    <trip id="veh12" type="veh_passenger" depart="34.86" departLane="best" departSpeed="max" from="103614050" to="103614021"/>
    <trip id="veh15" type="veh_passenger" depart="43.58" departLane="best" departSpeed="max" from="123125961" to="123125963"/>
    <trip id="veh19" type="veh_passenger" depart="55.20" departLane="best" departSpeed="max" from="103614050" to="103614064"/>
    <trip id="veh20" type="veh_passenger" depart="58.11" departLane="best" departSpeed="max" from="103614065" to="103614110"/>
    <trip id="veh23" type="veh_passenger" depart="66.82" departLane="best" departSpeed="max" from="103614167" to="908646578"/>
    <trip id="veh24" type="veh_passenger" depart="69.73" departLane="best" departSpeed="max" from="125523530#0" to="123125963"/>
    <trip id="veh25" type="veh_passenger" depart="72.63" departLane="best" departSpeed="max" from="103614125" to="123125976"/>
    <trip id="veh35" type="veh_passenger" depart="101.68" departLane="best" departSpeed="max" from="125523527#0" to="103614064"/>
    <trip id="veh38" type="veh_passenger" depart="110.40" departLane="best" departSpeed="max" from="103614050" to="103614021"/>
    <trip id="veh44" type="veh_passenger" depart="127.83" departLane="best" departSpeed="max" from="125523530#0" to="123125963"/>
    <trip id="veh45" type="veh_passenger" depart="130.74" departLane="best" departSpeed="max" from="103614167" to="123125976"/>
    <trip id="veh50" type="veh_passenger" depart="145.26" departLane="best" departSpeed="max" from="928703863" to="908646578"/>
    <trip id="veh52" type="veh_passenger" depart="151.07" departLane="best" departSpeed="max" from="125523527#0" to="103614021"/>
    <trip id="veh53" type="veh_passenger" depart="153.98" departLane="best" departSpeed="max" from="125523530#0" to="123125963"/>
    <trip id="veh60" type="veh_passenger" depart="174.32" departLane="best" departSpeed="max" from="103614050" to="105036938"/>
    <trip id="veh63" type="veh_passenger" depart="183.03" departLane="best" departSpeed="max" from="103614167" to="908646578"/>
    <trip id="veh69" type="veh_passenger" depart="200.46" departLane="best" departSpeed="max" from="103614065" to="103614064"/>
    <trip id="veh70" type="veh_passenger" depart="203.37" departLane="best" departSpeed="max" from="123125961" to="123125963"/>
    <trip id="veh81" type="veh_passenger" depart="235.33" departLane="best" departSpeed="max" from="125523530#0" to="123125976"/>
    <trip id="veh85" type="veh_passenger" depart="246.95" departLane="best" departSpeed="max" from="103614125" to="103614164"/>
    <trip id="veh89" type="veh_passenger" depart="258.57" departLane="best" departSpeed="max" from="125523527#0" to="103614021"/>
    <trip id="veh91" type="veh_passenger" depart="264.38" departLane="best" departSpeed="max" from="125523527#0" to="103614064"/>
    <trip id="veh98" type="veh_passenger" depart="284.72" departLane="best" departSpeed="max" from="103614065" to="103614110"/>
    <trip id="veh113" type="veh_passenger" depart="328.29" departLane="best" departSpeed="max" from="103614050" to="103614064"/>
    <trip id="veh114" type="veh_passenger" depart="331.20" departLane="best" departSpeed="max" from="103614167" to="908646578"/>
    <trip id="veh118" type="veh_passenger" depart="342.82" departLane="best" departSpeed="max" from="15310476" to="103614110"/>
    <trip id="veh119" type="veh_passenger" depart="345.73" departLane="best" departSpeed="max" from="125523530#0" to="908646578"/>
    <trip id="veh120" type="veh_passenger" depart="348.63" departLane="best" departSpeed="max" from="103614065" to="103614021"/>
    <trip id="veh122" type="veh_passenger" depart="354.44" departLane="best" departSpeed="max" from="103614167" to="123125963"/>
    <trip id="veh128" type="veh_passenger" depart="371.87" departLane="best" departSpeed="max" from="125523530#0" to="123125963"/>
    <trip id="veh133" type="veh_passenger" depart="386.40" departLane="best" departSpeed="max" from="103614065" to="103614021"/>
    <trip id="veh146" type="veh_passenger" depart="424.17" departLane="best" departSpeed="max" from="15310476" to="103614110"/>
    <trip id="veh147" type="veh_passenger" depart="427.07" departLane="best" departSpeed="max" from="15310476" to="103614021"/>
    <trip id="veh149" type="veh_passenger" depart="432.88" departLane="best" departSpeed="max" from="103614148" to="908429587"/>
    <trip id="veh151" type="veh_passenger" depart="438.70" departLane="best" departSpeed="max" from="15310476" to="103614064"/>
    <trip id="veh161" type="veh_passenger" depart="467.75" departLane="best" departSpeed="max" from="125523530#0" to="103614130"/>
    <trip id="veh163" type="veh_passenger" depart="473.56" departLane="best" departSpeed="max" from="123125961" to="123125963"/>
    <trip id="veh167" type="veh_passenger" depart="485.18" departLane="best" departSpeed="max" from="125523530#0" to="123125976"/>
    <trip id="veh169" type="veh_passenger" depart="490.99" departLane="best" departSpeed="max" from="125523530#0" to="103614130"/>
    <trip id="veh171" type="veh_passenger" depart="496.80" departLane="best" departSpeed="max" from="125523530#0" to="103614130"/>
    <trip id="veh176" type="veh_passenger" depart="511.33" departLane="best" departSpeed="max" from="894554932" to="123125963"/>
    <trip id="veh177" type="veh_passenger" depart="514.23" departLane="best" departSpeed="max" from="123125961" to="123125963"/>
    <trip id="veh178" type="veh_passenger" depart="517.14" departLane="best" departSpeed="max" from="103614024" to="103614110"/>
    <trip id="veh180" type="veh_passenger" depart="522.95" departLane="best" departSpeed="max" from="125523530#0" to="103614164"/>
    <trip id="veh192" type="veh_passenger" depart="557.81" departLane="best" departSpeed="max" from="125523527#0" to="103614064"/>
    <trip id="veh194" type="veh_passenger" depart="563.62" departLane="best" departSpeed="max" from="103614125" to="908646578"/>
    <trip id="veh195" type="veh_passenger" depart="566.53" departLane="best" departSpeed="max" from="125523527#0" to="103614021"/>
    <trip id="veh196" type="veh_passenger" depart="569.43" departLane="best" departSpeed="max" from="103614148" to="908429587"/>
    <trip id="veh198" type="veh_passenger" depart="575.24" departLane="best" departSpeed="max" from="125523530#0" to="908646578"/>
    <trip id="veh199" type="veh_passenger" depart="578.15" departLane="best" departSpeed="max" from="894554932" to="123125963"/>
    <trip id="veh200" type="veh_passenger" depart="581.05" departLane="best" departSpeed="max" from="125523530#0" to="123125963"/>
    <trip id="veh205" type="veh_passenger" depart="595.58" departLane="best" departSpeed="max" from="125523530#0" to="123125963"/>
    <trip id="veh206" type="veh_passenger" depart="598.48" departLane="best" departSpeed="max" from="103614050" to="103614110"/>
    <trip id="veh207" type="veh_passenger" depart="601.39" departLane="best" departSpeed="max" from="103614167" to="103614130"/>
    <trip id="veh208" type="veh_passenger" depart="604.30" departLane="best" departSpeed="max" from="125523527#0" to="103614021"/>
    <trip id="veh218" type="veh_passenger" depart="633.35" departLane="best" departSpeed="max" from="123125974" to="123125976"/>
    <trip id="veh235" type="veh_passenger" depart="682.74" departLane="best" departSpeed="max" from="125523530#0" to="123125976"/>
    <trip id="veh237" type="veh_passenger" depart="688.55" departLane="best" departSpeed="max" from="103614024" to="103614021"/>
    <trip id="veh239" type="veh_passenger" depart="694.36" departLane="best" departSpeed="max" from="125523527#0" to="103614064"/>
    <trip id="veh240" type="veh_passenger" depart="697.26" departLane="best" departSpeed="max" from="103614125" to="123125963"/>
    <trip id="veh242" type="veh_passenger" depart="703.07" departLane="best" departSpeed="max" from="103614065" to="103614021"/>
    <trip id="veh244" type="veh_passenger" depart="708.88" departLane="best" departSpeed="max" from="987375753#0" to="103614163"/>
    <trip id="veh245" type="veh_passenger" depart="711.79" departLane="best" departSpeed="max" from="125523530#0" to="123125963"/>
    <trip id="veh249" type="veh_passenger" depart="723.41" departLane="best" departSpeed="max" from="15310476" to="103614153"/>
    <trip id="veh255" type="veh_passenger" depart="740.84" departLane="best" departSpeed="max" from="125523530#0" to="103614164"/>
    <trip id="veh256" type="veh_passenger" depart="743.75" departLane="best" departSpeed="max" from="125523530#0" to="908646578"/>
    <trip id="veh258" type="veh_passenger" depart="749.56" departLane="best" departSpeed="max" from="125523527#0" to="105036938"/>
    <trip id="veh259" type="veh_passenger" depart="752.46" departLane="best" departSpeed="max" from="123125974" to="123125976"/>
    <trip id="veh261" type="veh_passenger" depart="758.27" departLane="best" departSpeed="max" from="15310476" to="103614021"/>
    <trip id="veh266" type="veh_passenger" depart="772.80" departLane="best" departSpeed="max" from="103614148" to="48123986"/>
    <trip id="veh271" type="veh_passenger" depart="787.33" departLane="best" departSpeed="max" from="125523530#0" to="123125976"/>
    <trip id="veh273" type="veh_passenger" depart="793.14" departLane="best" departSpeed="max" from="103614050" to="103614064"/>
    <trip id="veh274" type="veh_passenger" depart="796.04" departLane="best" departSpeed="max" from="125523530#0" to="103614130"/>
    <trip id="veh275" type="veh_passenger" depart="798.95" departLane="best" departSpeed="max" from="125523527#0" to="105036938"/>
    <trip id="veh277" type="veh_passenger" depart="804.76" departLane="best" departSpeed="max" from="125523530#0" to="103614130"/>
    <trip id="veh285" type="veh_passenger" depart="828.00" departLane="best" departSpeed="max" from="125523527#0" to="103614110"/>
    <trip id="veh288" type="veh_passenger" depart="836.72" departLane="best" departSpeed="max" from="894554932" to="123125963"/>
    <trip id="veh296" type="veh_passenger" depart="859.96" departLane="best" departSpeed="max" from="125523530#0" to="123125963"/>
    <trip id="veh297" type="veh_passenger" depart="862.86" departLane="best" departSpeed="max" from="15310476" to="103614064"/>
    <trip id="veh301" type="veh_passenger" depart="874.48" departLane="best" departSpeed="max" from="125523530#0" to="123125963"/>
    <trip id="veh302" type="veh_passenger" depart="877.39" departLane="best" departSpeed="max" from="125523530#0" to="908646578"/>
    <trip id="veh305" type="veh_passenger" depart="886.11" departLane="best" departSpeed="max" from="125523527#0" to="103614110"/>
    <trip id="veh307" type="veh_passenger" depart="891.92" departLane="best" departSpeed="max" from="125523530#0" to="103614164"/>
    <trip id="veh308" type="veh_passenger" depart="894.82" departLane="best" departSpeed="max" from="125523530#0" to="908646578"/>
    <trip id="veh310" type="veh_passenger" depart="900.63" departLane="best" departSpeed="max" from="125523530#0" to="908646578"/>
    <trip id="veh312" type="veh_passenger" depart="906.44" departLane="best" departSpeed="max" from="125523530#0" to="908646578"/>
    <trip id="veh313" type="veh_passenger" depart="909.35" departLane="best" departSpeed="max" from="15310476" to="103614021"/>
    <trip id="veh314" type="veh_passenger" depart="912.25" departLane="best" departSpeed="max" from="103614125" to="103614130"/>
    <trip id="veh315" type="veh_passenger" depart="915.16" departLane="best" departSpeed="max" from="125523530#0" to="123125963"/>
    <trip id="veh317" type="veh_passenger" depart="920.97" departLane="best" departSpeed="max" from="125523530#0" to="123125976"/>
    <trip id="veh319" type="veh_passenger" depart="926.78" departLane="best" departSpeed="max" from="125523527#0" to="103614021"/>
    <trip id="veh325" type="veh_passenger" depart="944.21" departLane="best" departSpeed="max" from="103614042" to="123125976"/>
    <trip id="veh326" type="veh_passenger" depart="947.12" departLane="best" departSpeed="max" from="123125974" to="123125976"/>
    <trip id="veh329" type="veh_passenger" depart="955.83" departLane="best" departSpeed="max" from="125523527#0" to="103614021"/>
    <trip id="veh333" type="veh_passenger" depart="967.45" departLane="best" departSpeed="max" from="103614167" to="908646578"/>
    <trip id="veh341" type="veh_passenger" depart="990.70" departLane="best" departSpeed="max" from="125523530#0" to="123125963"/>
    <trip id="veh343" type="veh_passenger" depart="996.51" departLane="best" departSpeed="max" from="123125974" to="123125976"/>
    <trip id="veh345" type="veh_passenger" depart="1002.32" departLane="best" departSpeed="max" from="125523527#0" to="103614064"/>
    <trip id="veh347" type="veh_passenger" depart="1008.13" departLane="best" departSpeed="max" from="125523527#0" to="103614021"/>
    <trip id="veh351" type="veh_passenger" depart="1019.75" departLane="best" departSpeed="max" from="125523530#0" to="123125963"/>
    <trip id="veh361" type="veh_passenger" depart="1048.80" departLane="best" departSpeed="max" from="125523527#0" to="103614021"/>
    <trip id="veh365" type="veh_passenger" depart="1060.42" departLane="best" departSpeed="max" from="103614125" to="123125976"/>
    <trip id="veh366" type="veh_passenger" depart="1063.33" departLane="best" departSpeed="max" from="125523527#0" to="103614064"/>
    <trip id="veh367" type="veh_passenger" depart="1066.23" departLane="best" departSpeed="max" from="15310476" to="103614021"/>
    <trip id="veh368" type="veh_passenger" depart="1069.14" departLane="best" departSpeed="max" from="125523530#0" to="123125976"/>
    <trip id="veh381" type="veh_passenger" depart="1106.91" departLane="best" departSpeed="max" from="125523530#0" to="123125976"/>
    <trip id="veh384" type="veh_passenger" depart="1115.62" departLane="best" departSpeed="max" from="928703863" to="908646578"/>
    <trip id="veh385" type="veh_passenger" depart="1118.53" departLane="best" departSpeed="max" from="125523530#0" to="103614164"/>
    <trip id="veh388" type="veh_passenger" depart="1127.24" departLane="best" departSpeed="max" from="125523530#0" to="908646578"/>
    <trip id="veh400" type="veh_passenger" depart="1162.11" departLane="best" departSpeed="max" from="123125961" to="123125963"/>
    <trip id="veh402" type="veh_passenger" depart="1167.92" departLane="best" departSpeed="max" from="103614148" to="908429587"/>
    <trip id="veh407" type="veh_passenger" depart="1182.44" departLane="best" departSpeed="max" from="103614167" to="123125963"/>
    <trip id="veh408" type="veh_passenger" depart="1185.35" departLane="best" departSpeed="max" from="125523530#0" to="123125976"/>
    <trip id="veh412" type="veh_passenger" depart="1196.97" departLane="best" departSpeed="max" from="125523530#0" to="123125963"/>
    <trip id="veh413" type="veh_passenger" depart="1199.87" departLane="best" departSpeed="max" from="125523530#0" to="123125976"/>
    <trip id="veh415" type="veh_passenger" depart="1205.69" departLane="best" departSpeed="max" from="125523530#0" to="908646578"/>
    <trip id="veh416" type="veh_passenger" depart="1208.59" departLane="best" departSpeed="max" from="125523530#0" to="103614130"/>
    <trip id="veh419" type="veh_passenger" depart="1217.31" departLane="best" departSpeed="max" from="15310476" to="103614064"/>
    <trip id="veh424" type="veh_passenger" depart="1231.83" departLane="best" departSpeed="max" from="125523530#0" to="908646578"/>
    <trip id="veh427" type="veh_passenger" depart="1240.55" departLane="best" departSpeed="max" from="123125974" to="123125976"/>
    <trip id="veh428" type="veh_passenger" depart="1243.45" departLane="best" departSpeed="max" from="125523530#0" to="123125963"/>
    <trip id="veh430" type="veh_passenger" depart="1249.26" departLane="best" departSpeed="max" from="103614065" to="103614064"/>
    <trip id="veh439" type="veh_passenger" depart="1275.41" departLane="best" departSpeed="max" from="125523530#0" to="123125976"/>
    <trip id="veh440" type="veh_passenger" depart="1278.32" departLane="best" departSpeed="max" from="987375753#0" to="103614163"/>
    <trip id="veh448" type="veh_passenger" depart="1301.56" departLane="best" departSpeed="max" from="125523530#0" to="123125976"/>
    <trip id="veh449" type="veh_passenger" depart="1304.46" departLane="best" departSpeed="max" from="125523527#0" to="103614021"/>
    <trip id="veh450" type="veh_passenger" depart="1307.37" departLane="best" departSpeed="max" from="15310476" to="103614064"/>
    <trip id="veh457" type="veh_passenger" depart="1327.71" departLane="best" departSpeed="max" from="103614065" to="103614021"/>
    <trip id="veh461" type="veh_passenger" depart="1339.33" departLane="best" departSpeed="max" from="125523530#0" to="123125963"/>
    <trip id="veh473" type="veh_passenger" depart="1374.19" departLane="best" departSpeed="max" from="103614050" to="103614110"/>
    <trip id="veh474" type="veh_passenger" depart="1377.10" departLane="best" departSpeed="max" from="125523530#0" to="123125963"/>
    <trip id="veh477" type="veh_passenger" depart="1385.81" departLane="best" departSpeed="max" from="125523527#0" to="103614021"/>
    <trip id="veh483" type="veh_passenger" depart="1403.24" departLane="best" departSpeed="max" from="123125974" to="123125976"/>
    <trip id="veh486" type="veh_passenger" depart="1411.96" departLane="best" departSpeed="max" from="15310476" to="103614021"/>
    <trip id="veh492" type="veh_passenger" depart="1429.39" departLane="best" departSpeed="max" from="125523530#0" to="908646578"/>
    <trip id="veh493" type="veh_passenger" depart="1432.30" departLane="best" departSpeed="max" from="125523530#0" to="908646578"/>
    <trip id="veh495" type="veh_passenger" depart="1438.11" departLane="best" departSpeed="max" from="125523527#0" to="103614064"/>
    <trip id="veh504" type="veh_passenger" depart="1464.25" departLane="best" departSpeed="max" from="125523530#0" to="103614130"/>
    <trip id="veh512" type="veh_passenger" depart="1487.50" departLane="best" departSpeed="max" from="103614050" to="103614021"/>
    <trip id="veh524" type="veh_passenger" depart="1522.36" departLane="best" departSpeed="max" from="125523530#0" to="123125963"/>
    <trip id="veh531" type="veh_passenger" depart="1542.70" departLane="best" departSpeed="max" from="103614065" to="103614021"/>
    <trip id="veh539" type="veh_passenger" depart="1565.94" departLane="best" departSpeed="max" from="103614125" to="123125963"/>
    <trip id="veh543" type="veh_passenger" depart="1577.56" departLane="best" departSpeed="max" from="15310476" to="103614064"/>
    <trip id="veh544" type="veh_passenger" depart="1580.46" departLane="best" departSpeed="max" from="103614065" to="103614056"/>
    <trip id="veh548" type="veh_passenger" depart="1592.09" departLane="best" departSpeed="max" from="125523530#0" to="123125976"/>
    <trip id="veh564" type="veh_passenger" depart="1638.57" departLane="best" departSpeed="max" from="103614065" to="103614021"/>
    <trip id="veh572" type="veh_passenger" depart="1661.81" departLane="best" departSpeed="max" from="123125961" to="123125963"/>
    <trip id="veh574" type="veh_passenger" depart="1667.62" departLane="best" departSpeed="max" from="103614050" to="103614021"/>
    <trip id="veh575" type="veh_passenger" depart="1670.53" departLane="best" departSpeed="max" from="125523530#0" to="123125976"/>
    <trip id="veh576" type="veh_passenger" depart="1673.43" departLane="best" departSpeed="max" from="928703863" to="908646578"/>
    <trip id="veh577" type="veh_passenger" depart="1676.34" departLane="best" departSpeed="max" from="123125961" to="123125963"/>
    <trip id="veh585" type="veh_passenger" depart="1699.58" departLane="best" departSpeed="max" from="125523530#0" to="123125963"/>
    <trip id="veh596" type="veh_passenger" depart="1731.54" departLane="best" departSpeed="max" from="15310476" to="103614021"/>
    <trip id="veh600" type="veh_passenger" depart="1743.16" departLane="best" departSpeed="max" from="125523530#0" to="103614164"/>
    <trip id="veh606" type="veh_passenger" depart="1760.59" departLane="best" departSpeed="max" from="123125961" to="123125963"/>
    <trip id="veh607" type="veh_passenger" depart="1763.50" departLane="best" departSpeed="max" from="15310476" to="103614021"/>
    <trip id="veh609" type="veh_passenger" depart="1769.31" departLane="best" departSpeed="max" from="894554932" to="123125963"/>
    <trip id="veh619" type="veh_passenger" depart="1798.36" departLane="best" departSpeed="max" from="103614065" to="103614110"/>
    <trip id="veh623" type="veh_passenger" depart="1809.98" departLane="best" departSpeed="max" from="103614050" to="103614064"/>
    <trip id="veh625" type="veh_passenger" depart="1815.79" departLane="best" departSpeed="max" from="125523530#0" to="123125963"/>
    <trip id="veh626" type="veh_passenger" depart="1818.70" departLane="best" departSpeed="max" from="103614065" to="103614110"/>
    <trip id="veh638" type="veh_passenger" depart="1853.56" departLane="best" departSpeed="max" from="125523530#0" to="908646578"/>
    <trip id="veh640" type="veh_passenger" depart="1859.37" departLane="best" departSpeed="max" from="15310476" to="103614153"/>
    <trip id="veh641" type="veh_passenger" depart="1862.27" departLane="best" departSpeed="max" from="125523530#0" to="123125963"/>
    <trip id="veh642" type="veh_passenger" depart="1865.18" departLane="best" departSpeed="max" from="125523530#0" to="123125976"/>
    <trip id="veh645" type="veh_passenger" depart="1873.90" departLane="best" departSpeed="max" from="123125974" to="123125976"/>
    <trip id="veh650" type="veh_passenger" depart="1888.42" departLane="best" departSpeed="max" from="125523527#0" to="103614064"/>
    <trip id="veh662" type="veh_passenger" depart="1923.29" departLane="best" departSpeed="max" from="123125961" to="123125963"/>
    <trip id="veh663" type="veh_passenger" depart="1926.19" departLane="best" departSpeed="max" from="123125974" to="123125976"/>
    <trip id="veh670" type="veh_passenger" depart="1946.53" departLane="best" departSpeed="max" from="125523530#0" to="908646578"/>
    <trip id="veh672" type="veh_passenger" depart="1952.34" departLane="best" departSpeed="max" from="15310476" to="103614021"/>
    <trip id="veh676" type="veh_passenger" depart="1963.96" departLane="best" departSpeed="max" from="125523530#0" to="908646578"/>
    <trip id="veh679" type="veh_passenger" depart="1972.68" departLane="best" departSpeed="max" from="123125974" to="123125976"/>
    <trip id="veh682" type="veh_passenger" depart="1981.39" departLane="best" departSpeed="max" from="123125961" to="123125963"/>
    <trip id="veh685" type="veh_passenger" depart="1990.11" departLane="best" departSpeed="max" from="103614167" to="908646578"/>
    <trip id="veh686" type="veh_passenger" depart="1993.01" departLane="best" departSpeed="max" from="125523527#0" to="103614021"/>
    <trip id="veh695" type="veh_passenger" depart="2019.16" departLane="best" departSpeed="max" from="103614065" to="103614064"/>
    <trip id="veh702" type="veh_passenger" depart="2039.50" departLane="best" departSpeed="max" from="15310476" to="103614021"/>
    <trip id="veh704" type="veh_passenger" depart="2045.31" departLane="best" departSpeed="max" from="123125974" to="123125976"/>
    <trip id="veh707" type="veh_passenger" depart="2054.02" departLane="best" departSpeed="max" from="103614125" to="908646578"/>
    <trip id="veh710" type="veh_passenger" depart="2062.74" departLane="best" departSpeed="max" from="103614065" to="103614021"/>
    <trip id="veh715" type="veh_passenger" depart="2077.26" departLane="best" departSpeed="max" from="125523527#0" to="103614021"/>
    <trip id="veh716" type="veh_passenger" depart="2080.17" departLane="best" departSpeed="max" from="123125961" to="123125963"/>
    <trip id="veh719" type="veh_passenger" depart="2088.89" departLane="best" departSpeed="max" from="125523530#0" to="123125976"/>
    <trip id="veh722" type="veh_passenger" depart="2097.60" departLane="best" departSpeed="max" from="103614024" to="103614021"/>
    <trip id="veh723" type="veh_passenger" depart="2100.51" departLane="best" departSpeed="max" from="125523530#0" to="123125963"/>
    <trip id="veh724" type="veh_passenger" depart="2103.41" departLane="best" departSpeed="max" from="123125974" to="123125976"/>
    <trip id="veh726" type="veh_passenger" depart="2109.22" departLane="best" departSpeed="max" from="103614167" to="908646578"/>
    <trip id="veh728" type="veh_passenger" depart="2115.03" departLane="best" departSpeed="max" from="103614050" to="103614021"/>
    <trip id="veh734" type="veh_passenger" depart="2132.46" departLane="best" departSpeed="max" from="123125961" to="123125963"/>
    <trip id="veh737" type="veh_passenger" depart="2141.18" departLane="best" departSpeed="max" from="103614065" to="103614110"/>
    <trip id="veh738" type="veh_passenger" depart="2144.09" departLane="best" departSpeed="max" from="123125961" to="123125963"/>
    <trip id="veh739" type="veh_passenger" depart="2146.99" departLane="best" departSpeed="max" from="103614148" to="908429587"/>
    <trip id="veh743" type="veh_passenger" depart="2158.61" departLane="best" departSpeed="max" from="125523527#0" to="105036938"/>
    <trip id="veh751" type="veh_passenger" depart="2181.85" departLane="best" departSpeed="max" from="125523530#0" to="123125976"/>
    <trip id="veh754" type="veh_passenger" depart="2190.57" departLane="best" departSpeed="max" from="125523527#0" to="103614021"/>
    <trip id="veh756" type="veh_passenger" depart="2196.38" departLane="best" departSpeed="max" from="103614167" to="908646578"/>
    <trip id="veh757" type="veh_passenger" depart="2199.29" departLane="best" departSpeed="max" from="987375753#0" to="103614163"/>
    <trip id="veh758" type="veh_passenger" depart="2202.19" departLane="best" departSpeed="max" from="15310476" to="103614153"/>
    <trip id="veh761" type="veh_passenger" depart="2210.91" departLane="best" departSpeed="max" from="125523527#0" to="103614021"/>
    <trip id="veh765" type="veh_passenger" depart="2222.53" departLane="best" departSpeed="max" from="123125961" to="123125963"/>
    <trip id="veh766" type="veh_passenger" depart="2225.43" departLane="best" departSpeed="max" from="103614125" to="908646578"/>
    <trip id="veh777" type="veh_passenger" depart="2257.39" departLane="best" departSpeed="max" from="125523530#0" to="123125963"/>
    <trip id="veh782" type="veh_passenger" depart="2271.92" departLane="best" departSpeed="max" from="928703863" to="908646578"/>
    <trip id="veh783" type="veh_passenger" depart="2274.82" departLane="best" departSpeed="max" from="103614065" to="103614064"/>
    <trip id="veh786" type="veh_passenger" depart="2283.54" departLane="best" departSpeed="max" from="103614125" to="908646578"/>
    <trip id="veh788" type="veh_passenger" depart="2289.35" departLane="best" departSpeed="max" from="125523530#0" to="123125976"/>
    <trip id="veh789" type="veh_passenger" depart="2292.25" departLane="best" departSpeed="max" from="125523530#0" to="123125976"/>
    <trip id="veh803" type="veh_passenger" depart="2332.93" departLane="best" departSpeed="max" from="125523530#0" to="123125963"/>
    <trip id="veh813" type="veh_passenger" depart="2361.98" departLane="best" departSpeed="max" from="125523530#0" to="908646578"/>