<?xml version="1.0" encoding="UTF-8"?>

<!-- generated on 2024-07-10 22:06:11 by Eclipse SUMO netedit Version 1.19.0
-->

<additional xmlns:xsi="http://www.w3.org/2001/XMLSchema-instance" xsi:noNamespaceSchemaLocation="http://sumo.dlr.de/xsd/additional_file.xsd">
    <!-- Detectors -->
    <inductionLoop id="H10E_1_0" lane="52036514#1_0" pos="90.79" period="120.00" file="H10E_1_0.xml"/>
    <inductionLoop id="H10E_1_1" lane="52036514#1_1" pos="90.79" period="120.00" file="H10E_1_1.xml"/>
    <inductionLoop id="H10E_1_2" lane="52036514#1_2" pos="90.79" period="120.00" file="H10E_1_2.xml"/>
    <inductionLoop id="H10E_1_3" lane="52036514#1_3" pos="90.79" period="120.00" file="H10E_1_3.xml"/>
    <inductionLoop id="H10E_1_4" lane="52036514#1_4" pos="90.79" period="120.00" file="H10E_1_4.xml"/>
    <inductionLoop id="H10E_1_5" lane="52036514#1_5" pos="90.79" period="120.00" file="H10E_1_5.xml"/>
    <inductionLoop id="H10E_2_0" lane="27630863_0" pos="169.76" period="120.00" file="H10E_2_0.xml"/>
    <inductionLoop id="H10E_2_1" lane="27630863_1" pos="169.76" period="120.00" file="H10E_2_1.xml"/>
    <inductionLoop id="H10E_2_2" lane="27630863_2" pos="169.76" period="120.00" file="H10E_2_2.xml"/>
    <inductionLoop id="H10E_2_3" lane="27630863_3" pos="169.76" period="120.00" file="H10E_2_3.xml"/>
    <inductionLoop id="H10E_2_4" lane="27630863_4" pos="169.76" period="120.00" file="H10E_2_4.xml"/>
    <inductionLoop id="H10E_3_0" lane="121647273_0" pos="30.05" period="120.00" file="H10E_3_0.xml"/>
    <inductionLoop id="H10E_3_1" lane="121647273_1" pos="30.05" period="120.00" file="H10E_3_1.xml"/>
    <inductionLoop id="H10E_3_2" lane="121647273_2" pos="30.05" period="120.00" file="H10E_3_2.xml"/>
    <inductionLoop id="H10E_3_3" lane="121647273_3" pos="30.05" period="120.00" file="H10E_3_3.xml"/>
    <inductionLoop id="H10E_3_4" lane="121647273_4" pos="30.05" period="120.00" file="H10E_3_4.xml"/>
    <inductionLoop id="H10E_3_5" lane="121647273_5" pos="30.05" period="120.00" file="H10E_3_5.xml"/>
    <inductionLoop id="H10E_4_0" lane="866217732_0" pos="65.65" period="120.00" file="H10E_4_0.xml"/>
    <inductionLoop id="H10E_4_1" lane="866217732_1" pos="65.65" period="120.00" file="H10E_4_1.xml"/>
    <inductionLoop id="H10E_4_2" lane="866217732_2" pos="65.65" period="120.00" file="H10E_4_2.xml"/>
    <inductionLoop id="H10E_4_3" lane="866217732_3" pos="65.65" period="120.00" file="H10E_4_3.xml"/>
    <inductionLoop id="H10E_4_4" lane="866217732_4" pos="65.65" period="120.00" file="H10E_4_4.xml"/>
    <inductionLoop id="H10E_4_5" lane="866217732_5" pos="65.65" period="120.00" file="H10E_4_5.xml"/>
    <inductionLoop id="H10E_5_0" lane="27631049#1-AddedOnRampEdge_0" pos="47.46" period="120.00" file="H10E_5_0.xml"/>
    <inductionLoop id="H10E_5_1" lane="27631049#1-AddedOnRampEdge_1" pos="47.46" period="120.00" file="H10E_5_1.xml"/>
    <inductionLoop id="H10E_5_2" lane="27631049#1-AddedOnRampEdge_2" pos="47.46" period="120.00" file="H10E_5_2.xml"/>
    <inductionLoop id="H10E_5_3" lane="27631049#1-AddedOnRampEdge_3" pos="47.46" period="120.00" file="H10E_5_3.xml"/>
    <inductionLoop id="H10E_5_4" lane="27631049#1-AddedOnRampEdge_4" pos="47.46" period="120.00" file="H10E_5_4.xml"/>
    <inductionLoop id="H10E_5_5" lane="27631049#1-AddedOnRampEdge_5" pos="47.46" period="120.00" file="H10E_5_5.xml"/>
    <inductionLoop id="H10E_6_0" lane="123456279_0" pos="82.72" period="120.00" file="H10E_6_0.xml"/>
    <inductionLoop id="H10E_6_1" lane="123456279_1" pos="82.72" period="120.00" file="H10E_6_1.xml"/>
    <inductionLoop id="H10E_6_2" lane="123456279_2" pos="82.72" period="120.00" file="H10E_6_2.xml"/>
    <inductionLoop id="H10E_6_3" lane="123456279_3" pos="82.72" period="120.00" file="H10E_6_3.xml"/>
    <inductionLoop id="H10E_6_4" lane="123456279_4" pos="82.72" period="120.00" file="H10E_6_4.xml"/>
    <inductionLoop id="H10E_6_5" lane="123456279_5" pos="82.72" period="120.00" file="H10E_6_5.xml"/>
    <inductionLoop id="H10E_7_0" lane="27631106_0" pos="23.19" period="120.00" file="H10E_7_0.xml"/>
    <inductionLoop id="H10E_7_1" lane="27631106_1" pos="23.19" period="120.00" file="H10E_7_1.xml"/>
    <inductionLoop id="H10E_7_2" lane="27631106_2" pos="23.19" period="120.00" file="H10E_7_2.xml"/>
    <inductionLoop id="H10E_7_3" lane="27631106_3" pos="23.19" period="120.00" file="H10E_7_3.xml"/>
    <inductionLoop id="H10E_7_4" lane="27631106_4" pos="23.19" period="120.00" file="H10E_7_4.xml"/>
    <inductionLoop id="H10E_7_5" lane="27631106_5" pos="23.19" period="120.00" file="H10E_7_5.xml"/>
    <inductionLoop id="H10E_8_0" lane="27143306#1_0" pos="34.40" period="120.00" file="H10E_8_0.xml"/>
    <inductionLoop id="H10E_8_1" lane="27143306#1_1" pos="34.40" period="120.00" file="H10E_8_1.xml"/>
    <inductionLoop id="H10E_8_2" lane="27143306#1_2" pos="34.40" period="120.00" file="H10E_8_2.xml"/>
    <inductionLoop id="H10E_8_3" lane="27143306#1_3" pos="34.40" period="120.00" file="H10E_8_3.xml"/>
    <inductionLoop id="H10E_8_4" lane="27143306#1_4" pos="34.40" period="120.00" file="H10E_8_4.xml"/>
    <inductionLoop id="H10E_8_5" lane="27143306#1_5" pos="34.40" period="120.00" file="H10E_8_5.xml"/>
    <inductionLoop id="H10E_in_0" lane="38608486_0" pos="14.61" period="120.00" file="H10E_in_0.xml"/>
    <inductionLoop id="H10E_in_1" lane="38608486_1" pos="14.61" period="120.00" file="H10E_in_0.xml"/>
    <inductionLoop id="H10E_in_2" lane="38608486_2" pos="14.61" period="120.00" file="H10E_in_1.xml"/>
    <inductionLoop id="H10E_in_3" lane="38608486_3" pos="14.61" period="120.00" file="H10E_in_2.xml"/>
    <inductionLoop id="H10E_in_4" lane="38608486_4" pos="14.61" period="120.00" file="H10E_in_3.xml"/>
    <inductionLoop id="H10E_in_5" lane="38608486_5" pos="14.61" period="120.00" file="H10E_in_4.xml"/>
    <inductionLoop id="H10E_out_0" lane="963582638_0" pos="260.15" period="120.00" file="H10E_out_0.xml"/>
    <inductionLoop id="H10E_out_1" lane="963582638_1" pos="260.15" period="120.00" file="H10E_out_1.xml"/>
    <inductionLoop id="H10E_out_2" lane="963582638_2" pos="260.15" period="120.00" file="H10E_out_2.xml"/>
    <inductionLoop id="H10E_out_3" lane="963582638_3" pos="260.15" period="120.00" file="H10E_out_3.xml"/>
    <inductionLoop id="H10E_out_4" lane="963582638_4" pos="260.15" period="120.00" file="H10E_out_4.xml"/>
    <inductionLoop id="H10E_out_5" lane="963582638_5" pos="260.15" period="120.00" file="H10E_out_5.xml"/>
    <inductionLoop id="H10W_in_0" lane="123456265_0" pos="41.92" period="300.00" file="H10W_in_0.xml"/>
    <inductionLoop id="H10W_in_1" lane="123456265_1" pos="41.92" period="300.00" file="H10W_in_1.xml"/>
    <inductionLoop id="H10W_in_2" lane="123456265_2" pos="41.92" period="300.00" file="H10W_in_2.xml"/>
    <inductionLoop id="H10W_in_3" lane="123456265_3" pos="41.92" period="300.00" file="H10W_in_3.xml"/>
    <inductionLoop id="H10W_in_4" lane="123456265_4" pos="41.92" period="300.00" file="H10W_in_4.xml"/>
    <inductionLoop id="H10W_in_5" lane="123456265_5" pos="41.92" period="300.00" file="H10W_in_5.xml"/>
    <inductionLoop id="H10W_out_0" lane="1049955341_0" pos="583.72" period="120.00" file="H10W_out_0.xml"/>
    <inductionLoop id="H10W_out_1" lane="1049955341_1" pos="583.72" period="120.00" file="H10W_out_1.xml"/>
    <inductionLoop id="H10W_out_2" lane="1049955341_2" pos="583.72" period="120.00" file="H10W_out_2.xml"/>
    <inductionLoop id="H10W_out_3" lane="1049955341_3" pos="583.72" period="120.00" file="H10W_out_3.xml"/>
    <inductionLoop id="H10W_out_4" lane="1049955341_4" pos="583.72" period="120.00" file="H10W_out_4.xml"/>
    <inductionLoop id="H10W_out_5" lane="1049955341_5" pos="583.72" period="120.00" file="H10W_out_5.xml"/>
    <inductionLoop id="H15N_in_0" lane="398354314_0" pos="41.56" period="120.00" file="H15N_in_0.xml"/>
    <inductionLoop id="H15N_in_1" lane="398354314_1" pos="41.56" period="120.00" file="H15N_in_1.xml"/>
    <inductionLoop id="H15N_in_2" lane="398354314_2" pos="41.56" period="120.00" file="H15N_in_2.xml"/>
    <inductionLoop id="H15N_in_3" lane="398354314_3" pos="41.56" period="120.00" file="H15N_in_3.xml"/>
    <inductionLoop id="H15N_in_4" lane="398354314_4" pos="41.56" period="120.00" file="H15N_in_4.xml"/>
    <inductionLoop id="H15N_in_5" lane="398354314_5" pos="41.56" period="120.00" file="H15N_in_5.xml"/>
    <inductionLoop id="H15N_out_0" lane="866221698_0" pos="563.26" period="120.00" file="H15N_out_0.xml"/>
    <inductionLoop id="H15N_out_1" lane="866221698_1" pos="563.26" period="120.00" file="H15N_out_1.xml"/>
    <inductionLoop id="H15N_out_2" lane="866221698_2" pos="563.26" period="120.00" file="H15N_out_2.xml"/>
    <inductionLoop id="H15N_out_3" lane="866221698_3" pos="563.26" period="120.00" file="H15N_out_3.xml"/>
    <inductionLoop id="H15N_out_4" lane="866221698_4" pos="563.26" period="120.00" file="H15N_out_4.xml"/>
    <inductionLoop id="H15S_1_0" lane="398526927#1-AddedOnRampEdge_0" pos="40.68" period="120.00" file="H15S_1_0.xml"/>
    <inductionLoop id="H15S_1_1" lane="398526927#1-AddedOnRampEdge_1" pos="40.68" period="120.00" file="H15S_1_1.xml"/>
    <inductionLoop id="H15S_1_2" lane="398526927#1-AddedOnRampEdge_2" pos="40.68" period="120.00" file="H15S_1_2.xml"/>
    <inductionLoop id="H15S_1_3" lane="398526927#1-AddedOnRampEdge_3" pos="40.68" period="120.00" file="H15S_1_3.xml"/>
    <inductionLoop id="H15S_1_4" lane="398526927#1-AddedOnRampEdge_4" pos="40.68" period="120.00" file="H15S_1_4.xml"/>
    <inductionLoop id="H15S_1_5" lane="398526927#1-AddedOnRampEdge_5" pos="40.68" period="120.00" file="H15S_1_5.xml"/>
    <inductionLoop id="H15S_2_0" lane="398526922_0" pos="50.02" period="120.00" file="H15S_2_0.xml"/>
    <inductionLoop id="H15S_2_1" lane="398526922_1" pos="50.02" period="120.00" file="H15S_2_1.xml"/>
    <inductionLoop id="H15S_2_2" lane="398526922_2" pos="50.02" period="120.00" file="H15S_2_2.xml"/>
    <inductionLoop id="H15S_2_3" lane="398526922_3" pos="50.02" period="120.00" file="H15S_2_3.xml"/>
    <inductionLoop id="H15S_2_4" lane="398526922_4" pos="50.02" period="120.00" file="H15S_2_4.xml"/>
    <inductionLoop id="H15S_2_5" lane="398526922_5" pos="50.02" period="120.00" file="H15S_2_5.xml"/>
    <inductionLoop id="H15S_3_0" lane="867292544_0" pos="41.83" period="120.00" file="H15S_3_0.xml"/>
    <inductionLoop id="H15S_3_1" lane="867292544_1" pos="41.83" period="120.00" file="H15S_3_1.xml"/>
    <inductionLoop id="H15S_3_2" lane="867292544_2" pos="41.83" period="120.00" file="H15S_3_2.xml"/>
    <inductionLoop id="H15S_3_3" lane="867292544_3" pos="41.83" period="120.00" file="H15S_3_3.xml"/>
    <inductionLoop id="H15S_3_4" lane="867292544_4" pos="41.83" period="120.00" file="H15S_3_4.xml"/>
    <inductionLoop id="H15S_3_5" lane="867292544_5" pos="41.83" period="120.00" file="H15S_3_5.xml"/>
    <inductionLoop id="H15S_in_0" lane="E0_0" pos="17.74" period="120.00" file="H15S_in_0.xml"/>
    <inductionLoop id="H15S_in_1" lane="E0_1" pos="17.74" period="120.00" file="H15S_in_1.xml"/>
    <inductionLoop id="H15S_in_2" lane="E0_2" pos="17.74" period="120.00" file="H15S_in_2.xml"/>
    <inductionLoop id="H15S_in_3" lane="E0_3" pos="17.74" period="120.00" file="H15S_in_3.xml"/>
    <inductionLoop id="H15S_in_4" lane="E0_4" pos="17.74" period="120.00" file="H15S_in_4.xml"/>
    <inductionLoop id="H15S_out_0" lane="867193421_0" pos="409.35" period="300.00" file="H15S_out_0.xml"/>
    <inductionLoop id="H15S_out_1" lane="867193421_1" pos="409.35" period="300.00" file="H15S_out_1.xml"/>
    <inductionLoop id="H15S_out_2" lane="867193421_2" pos="409.35" period="300.00" file="H15S_out_2.xml"/>
    <inductionLoop id="H15S_out_3" lane="867193421_3" pos="409.35" period="300.00" file="H15S_out_3.xml"/>
    <inductionLoop id="H15S_out_4" lane="867193421_4" pos="409.35" period="300.00" file="H15S_out_4.xml"/>
    <inductionLoop id="H20E_in_0" lane="79102681-AddedOnRampEdge_0" pos="44.24" period="120.00" file="H20E_in_0.xml"/>
    <inductionLoop id="H20E_in_1" lane="79102681-AddedOnRampEdge_1" pos="44.24" period="120.00" file="H20E_in_1.xml"/>
    <inductionLoop id="H20E_in_2" lane="79102681-AddedOnRampEdge_2" pos="44.24" period="120.00" file="H20E_in_2.xml"/>
    <inductionLoop id="H20E_in_3" lane="79102681-AddedOnRampEdge_3" pos="44.24" period="120.00" file="H20E_in_3.xml"/>
    <inductionLoop id="H20E_in_4" lane="79102681-AddedOnRampEdge_4" pos="44.24" period="120.00" file="H20E_in_4.xml"/>
    <inductionLoop id="H20E_out_0" lane="34580942_0" pos="1492.82" period="120.00" file="H20E_out_0.xml"/>
    <inductionLoop id="H20E_out_1" lane="34580942_0" pos="1492.82" period="120.00" file="H20E_out_1.xml"/>
    <inductionLoop id="H20W_1_0" lane="983848433_0" pos="23.48" period="120.00" file="H20W_1_0.xml"/>
    <inductionLoop id="H20W_1_1" lane="983848433_1" pos="23.48" period="120.00" file="H20W_1_1.xml"/>
    <inductionLoop id="H20W_1_2" lane="983848433_2" pos="23.48" period="120.00" file="H20W_1_2.xml"/>
    <inductionLoop id="H20W_1_3" lane="983848433_3" pos="23.48" period="120.00" file="H20W_1_3.xml"/>
    <inductionLoop id="H20W_1_4" lane="983848433_4" pos="23.48" period="120.00" file="H20W_1_4.xml"/>
    <inductionLoop id="H20W_2_0" lane="349444436_0" pos="22.35" period="120.00" file="H20W_2_0.xml"/>
    <inductionLoop id="H20W_2_1" lane="349444436_1" pos="22.35" period="120.00" file="H20W_2_1.xml"/>
    <inductionLoop id="H20W_2_2" lane="349444436_2" pos="22.35" period="120.00" file="H20W_2_2.xml"/>
    <inductionLoop id="H20W_2_3" lane="349444436_3" pos="22.35" period="120.00" file="H20W_2_3.xml"/>
    <inductionLoop id="H20W_in_0" lane="125083399_0" pos="23.27" period="120.00" file="H20W_in_0.xml"/>
    <inductionLoop id="H20W_in_1" lane="125083399_1" pos="23.27" period="120.00" file="H20W_in_1.xml"/>
    <inductionLoop id="H20W_out_0" lane="79102696_0" pos="398.95" period="120.00" file="H20W_out_0.xml"/>
    <inductionLoop id="H20W_out_1" lane="79102696_1" pos="398.95" period="120.00" file="H20W_out_1.xml"/>
    <inductionLoop id="H20W_out_2" lane="79102696_2" pos="398.95" period="120.00" file="H20W_out_2.xml"/>
    <inductionLoop id="H20W_out_3" lane="79102696_3" pos="398.95" period="120.00" file="H20W_out_3.xml"/>
    <inductionLoop id="H25N_1_0" lane="993919540_0" pos="68.50" period="120.00" file="H25N_1_0.xml"/>
    <inductionLoop id="H25N_1_1" lane="993919540_1" pos="68.50" period="120.00" file="H25N_1_1.xml"/>
    <inductionLoop id="H25N_1_2" lane="993919540_2" pos="68.50" period="120.00" file="H25N_1_2.xml"/>
    <inductionLoop id="H25N_1_3" lane="993919540_3" pos="68.50" period="120.00" file="H25N_1_3.xml"/>
    <inductionLoop id="H25N_1_4" lane="993919540_4" pos="68.50" period="120.00" file="H25N_1_4.xml"/>
    <inductionLoop id="H25N_1_5" lane="993919540_5" pos="68.50" period="120.00" file="H25N_1_5.xml"/>
    <inductionLoop id="H25N_2_0" lane="983154384_0" pos="82.21" period="120.00" file="H25N_2_0.xml"/>
    <inductionLoop id="H25N_2_1" lane="983154384_1" pos="82.21" period="120.00" file="H25N_2_1.xml"/>
    <inductionLoop id="H25N_2_2" lane="983154384_2" pos="82.21" period="120.00" file="H25N_2_2.xml"/>
    <inductionLoop id="H25N_2_3" lane="983154384_3" pos="82.21" period="120.00" file="H25N_2_3.xml"/>
    <inductionLoop id="H25N_2_4" lane="983154384_4" pos="82.21" period="120.00" file="H25N_2_4.xml"/>
    <inductionLoop id="H25N_2_5" lane="983154384_5" pos="82.21" period="120.00" file="H25N_2_5.xml"/>
    <inductionLoop id="H25N_2_6" lane="983154384_6" pos="82.21" period="120.00" file="H25N_2_6.xml"/>
    <inductionLoop id="H25N_in_0" lane="27145003_0" pos="78.31" period="120.00" file="H25N_in_0.xml"/>
    <inductionLoop id="H25N_in_1" lane="27145003_1" pos="78.31" period="120.00" file="H25N_in_1.xml"/>
    <inductionLoop id="H25N_in_2" lane="27145003_2" pos="78.31" period="120.00" file="H25N_in_2.xml"/>
    <inductionLoop id="H25N_in_3" lane="27145003_3" pos="78.31" period="120.00" file="H25N_in_3.xml"/>
    <inductionLoop id="H25N_in_4" lane="27145003_4" pos="78.31" period="120.00" file="H25N_in_4.xml"/>
    <inductionLoop id="H25N_in_5" lane="27145003_5" pos="78.31" period="120.00" file="H25N_in_5.xml"/>
    <inductionLoop id="H25N_out_0" lane="33621406_0" pos="150.61" period="120.00" file="H25N_out_0.xml"/>
    <inductionLoop id="H25N_out_1" lane="33621406_1" pos="150.61" period="120.00" file="H25N_out_1.xml"/>
    <inductionLoop id="H25N_out_2" lane="33621406_2" pos="150.61" period="120.00" file="H25N_out_2.xml"/>
    <inductionLoop id="H25N_out_3" lane="33621406_3" pos="150.61" period="120.00" file="H25N_out_3.xml"/>
    <inductionLoop id="H25N_out_4" lane="33621406_4" pos="150.61" period="120.00" file="H25N_out_4.xml"/>
    <inductionLoop id="H25S_in_0" lane="63507839#0_0" pos="47.21" period="120.00" file="H25S_in_0.xml"/>
    <inductionLoop id="H25S_in_1" lane="63507839#0_1" pos="47.21" period="120.00" file="H25S_in_1.xml"/>
    <inductionLoop id="H25S_in_2" lane="63507839#0_2" pos="47.21" period="120.00" file="H25S_in_2.xml"/>
    <inductionLoop id="H25S_in_3" lane="63507839#0_3" pos="47.21" period="120.00" file="H25S_in_3.xml"/>
    <inductionLoop id="H25S_in_4" lane="63507839#0_4" pos="47.21" period="120.00" file="H25S_in_4.xml"/>
    <inductionLoop id="H25S_in_5" lane="63507839#0_5" pos="47.21" period="120.00" file="H25S_in_5.xml"/>
    <inductionLoop id="H25S_out_0" lane="399995671_0" pos="424.12" period="120.00" file="H25S_out_0.xml"/>
    <inductionLoop id="H25S_out_1" lane="399995671_1" pos="424.12" period="120.00" file="H25S_out_1.xml"/>
    <inductionLoop id="H25S_out_2" lane="399995671_2" pos="424.12" period="120.00" file="H25S_out_2.xml"/>
    <inductionLoop id="H25S_out_3" lane="399995671_3" pos="424.12" period="120.00" file="H25S_out_3.xml"/>
    <inductionLoop id="H25S_out_4" lane="399995671_4" pos="424.12" period="120.00" file="H25S_out_4.xml"/>
    <inductionLoop id="H25S_out_5" lane="399995671_5" pos="424.12" period="120.00" file="H25S_out_5.xml"/>
</additional>
