<?xml version="1.0" encoding="UTF-8"?>

<!-- generated on 2024-07-31 13:20:48 by Eclipse SUMO netedit Version 1.20.0
-->

<additional xmlns:xsi="http://www.w3.org/2001/XMLSchema-instance" xsi:noNamespaceSchemaLocation="http://sumo.dlr.de/xsd/additional_file.xsd">
    <!-- Detectors -->
    <inductionLoop id="H10E_4_0" lane="866217732_0" pos="15.17" period="120.00" file="H10E_4_0.xml"/>
    <inductionLoop id="H10E_4_1" lane="866217732_1" pos="15.05" period="120.00" file="H10E_4_1.xml"/>
    <inductionLoop id="H10E_4_2" lane="866217732_2" pos="14.90" period="120.00" file="H10E_4_2.xml"/>
    <inductionLoop id="H10E_4_3" lane="866217732_3" pos="14.82" period="120.00" file="H10E_4_3.xml"/>
    <inductionLoop id="H10E_4_4" lane="866217732_4" pos="14.63" period="120.00" file="H10E_4_4.xml"/>
    <inductionLoop id="H10E_4_5" lane="866217732_5" pos="14.57" period="120.00" file="H10E_4_5.xml"/>
    <inductionLoop id="H10E_5_0" lane="27631049#1-AddedOnRampEdge_0" pos="47.46" period="120.00" file="H10E_5_0.xml"/>
    <inductionLoop id="H10E_5_1" lane="27631049#1-AddedOnRampEdge_1" pos="47.46" period="120.00" file="H10E_5_1.xml"/>
    <inductionLoop id="H10E_5_2" lane="27631049#1-AddedOnRampEdge_2" pos="47.46" period="120.00" file="H10E_5_2.xml"/>
    <inductionLoop id="H10E_5_3" lane="27631049#1-AddedOnRampEdge_3" pos="47.46" period="120.00" file="H10E_5_3.xml"/>
    <inductionLoop id="H10E_5_4" lane="27631049#1-AddedOnRampEdge_4" pos="47.46" period="120.00" file="H10E_5_4.xml"/>
    <inductionLoop id="H10E_5_5" lane="27631049#1-AddedOnRampEdge_5" pos="47.46" period="120.00" file="H10E_5_5.xml"/>
    <inductionLoop id="H10E_6_0" lane="123456279_0" pos="82.72" period="120.00" file="H10E_6_0.xml"/>
    <inductionLoop id="H10E_6_1" lane="123456279_1" pos="82.72" period="120.00" file="H10E_6_1.xml"/>
    <inductionLoop id="H10E_6_2" lane="123456279_2" pos="82.72" period="120.00" file="H10E_6_2.xml"/>
    <inductionLoop id="H10E_6_3" lane="123456279_3" pos="82.72" period="120.00" file="H10E_6_3.xml"/>
    <inductionLoop id="H10E_6_4" lane="123456279_4" pos="82.72" period="120.00" file="H10E_6_4.xml"/>
    <inductionLoop id="H10E_6_5" lane="123456279_5" pos="82.72" period="120.00" file="H10E_6_5.xml"/>
    <inductionLoop id="H10E_7_0" lane="27631106_0" pos="23.19" period="120.00" file="H10E_7_0.xml"/>
    <inductionLoop id="H10E_7_1" lane="27631106_1" pos="23.19" period="120.00" file="H10E_7_1.xml"/>
    <inductionLoop id="H10E_7_2" lane="27631106_2" pos="23.19" period="120.00" file="H10E_7_2.xml"/>
    <inductionLoop id="H10E_7_3" lane="27631106_3" pos="23.19" period="120.00" file="H10E_7_3.xml"/>
    <inductionLoop id="H10E_7_4" lane="27631106_4" pos="23.19" period="120.00" file="H10E_7_4.xml"/>
    <inductionLoop id="H10E_7_5" lane="27631106_5" pos="23.19" period="120.00" file="H10E_7_5.xml"/>
    <inductionLoop id="H10E_in_0" lane="38608486_0" pos="14.61" period="120.00" file="H10E_in_0.xml"/>
    <inductionLoop id="H10E_in_1" lane="38608486_1" pos="14.61" period="120.00" file="H10E_in_1.xml"/>
    <inductionLoop id="H10E_in_2" lane="38608486_2" pos="14.61" period="120.00" file="H10E_in_2.xml"/>
    <inductionLoop id="H10E_in_3" lane="38608486_3" pos="14.61" period="120.00" file="H10E_in_3.xml"/>
    <inductionLoop id="H10E_in_4" lane="38608486_4" pos="14.61" period="120.00" file="H10E_in_4.xml"/>
    <inductionLoop id="H10E_in_5" lane="38608486_5" pos="14.61" period="120.00" file="H10E_in_5.xml"/>
    <inductionLoop id="H10E_out_0" lane="963582638_0" pos="260.15" period="120.00" file="H10E_out_0.xml"/>
    <inductionLoop id="H10E_out_1" lane="963582638_1" pos="260.15" period="120.00" file="H10E_out_1.xml"/>
    <inductionLoop id="H10E_out_2" lane="963582638_2" pos="260.15" period="120.00" file="H10E_out_2.xml"/>
    <inductionLoop id="H10E_out_3" lane="963582638_3" pos="260.15" period="120.00" file="H10E_out_3.xml"/>
    <inductionLoop id="H10E_out_4" lane="963582638_4" pos="260.15" period="120.00" file="H10E_out_4.xml"/>
    <inductionLoop id="H10E_out_5" lane="963582638_5" pos="260.15" period="120.00" file="H10E_out_5.xml"/>
</additional>
