<?xml version="1.0" encoding="UTF-8"?>

<!-- generated on 2024-05-24 14:45:44 by Eclipse SUMO netedit Version 1.19.0
-->

<routes xmlns:xsi="http://www.w3.org/2001/XMLSchema-instance" xsi:noNamespaceSchemaLocation="http://sumo.dlr.de/xsd/routes_file.xsd">
    <!-- Vehicles, persons and containers (sorted by depart) -->

    <!-- H15N in Total inflow 5000-->
    <flow id="15N_in-25S_out" begin="0.00" departLane="free" departSpeed="max" reroute="true" fromJunction="H15N_in" toJunction="H25S_out" end="14400.00" vehsPerHour="600"/>
    <flow id="15N_in-10E_out" begin="0.00" departLane="free" departSpeed="max" reroute="true" fromJunction="H15N_in" toJunction="H10E_out" end="14400.00" vehsPerHour="800"/>
    <flow id="15N_in-20E_out" begin="0.00" departLane="free" departSpeed="max" reroute="true" fromJunction="H15N_in" toJunction="H20E_out" end="14400.00" vehsPerHour="300"/>
    <flow id="15N_in-15N_out" begin="0.00" departLane="free" departSpeed="max" reroute="true" fromJunction="H15N_in" toJunction="H15N_out" end="14400.00" vehsPerHour="500"/>
    <flow id="15N_in-25N_out" begin="0.00" departLane="free" departSpeed="max" reroute="true" fromJunction="H15N_in" toJunction="H25N_out" end="14400.00" vehsPerHour="300"/>
    <flow id="15N_in-20W_out" begin="0.00" departLane="free" departSpeed="max" reroute="true" fromJunction="H15N_in" toJunction="H20W_out" end="14400.00" vehsPerHour="400"/>
    <flow id="15N_in-10W_out" begin="0.00" departLane="free" departSpeed="max" reroute="true" fromJunction="H15N_in" toJunction="H10W_out" end="14400.00" vehsPerHour="200"/>

    <!-- H25N in Total inflow XXXX -->
    <flow id="25N_in-10E_out" begin="0.00" departLane="free" departSpeed="max" reroute="true" fromJunction="H25N_in" toJunction="H10E_out" end="14400.00" vehsPerHour="650"/>
    <flow id="25N_in-20E_out" begin="0.00" departLane="free" departSpeed="max" reroute="true" fromJunction="H25N_in" toJunction="H20E_out" end="14400.00" vehsPerHour="800"/>
    <flow id="25N_in-15N_out" begin="0.00" departLane="free" departSpeed="max" reroute="true" fromJunction="H25N_in" toJunction="H15N_out" end="14400.00" vehsPerHour="180"/>
    <flow id="25N_in-25N_out" begin="0.00" departLane="free" departSpeed="max" reroute="true" fromJunction="H25N_in" toJunction="H25N_out" end="14400.00" vehsPerHour="200"/>
    <flow id="25N_in-20W_out" begin="0.00" departLane="free" departSpeed="max" reroute="true" fromJunction="H25N_in" toJunction="H20W_out" end="14400.00" vehsPerHour="800"/>
    <flow id="25N_in-10W_out" begin="0.00" departLane="free" departSpeed="max" reroute="true" fromJunction="H25N_in" toJunction="H10W_out" end="14400.00" vehsPerHour="500"/>
    <flow id="25N_in-15S_out" begin="0.00" departLane="free" departSpeed="max" reroute="true" fromJunction="H25N_in" toJunction="H15S_out" end="14400.00" vehsPerHour="150"/>

    <!-- H10W in Total inflow XXXX-->
    <flow id="10W_in-20E_out" begin="0.00" departLane="free" departSpeed="max" reroute="true" fromJunction="H10W_in" toJunction="H20E_out" end="14400.00" vehsPerHour="200"/>
    <flow id="10W_in-15N_out" begin="0.00" departLane="free" departSpeed="max" reroute="true" fromJunction="H10W_in" toJunction="H15N_out" end="14400.00" vehsPerHour="800"/>
    <flow id="10W_in-25N_out" begin="0.00" departLane="free" departSpeed="max" reroute="true" fromJunction="H10W_in" toJunction="H25N_out" end="14400.00" vehsPerHour="600"/>
    <flow id="10W_in-20W_out" begin="0.00" departLane="free" departSpeed="max" reroute="true" fromJunction="H10W_in" toJunction="H20W_out" end="14400.00" vehsPerHour="700"/>
    <flow id="10W_in-10W_out" begin="0.00" departLane="free" departSpeed="max" reroute="true" fromJunction="H10W_in" toJunction="H10W_out" end="14400.00" vehsPerHour="800"/>
    <flow id="10W_in-15S_out" begin="0.00" departLane="free" departSpeed="max" reroute="true" fromJunction="H10W_in" toJunction="H15S_out" end="14400.00" vehsPerHour="100"/>
    <flow id="10W_in-25S_out" begin="0.00" departLane="free" departSpeed="max" reroute="true" fromJunction="H10W_in" toJunction="H25S_out" end="14400.00" vehsPerHour="800"/>

    <!-- H20W in Total inflow XXXX-->
    <flow id="20W_in-15N_out" begin="0.00" departLane="free" departSpeed="max" reroute="true" fromJunction="H20W_in" toJunction="H15N_out" end="14400.00" vehsPerHour="650"/>
    <flow id="20W_in-25N_out" begin="0.00" departLane="free" departSpeed="max" reroute="true" fromJunction="H20W_in" toJunction="H25N_out" end="14400.00" vehsPerHour="850"/>
    <flow id="20W_in-20W_out" begin="0.00" departLane="free" departSpeed="max" reroute="true" fromJunction="H20W_in" toJunction="H20W_out" end="14400.00" vehsPerHour="200"/>
    <flow id="20W_in-10W_out" begin="0.00" departLane="free" departSpeed="max" reroute="true" fromJunction="H20W_in" toJunction="H10W_out" end="14400.00" vehsPerHour="600"/>
    <flow id="20W_in-15S_out" begin="0.00" departLane="free" departSpeed="max" reroute="true" fromJunction="H20W_in" toJunction="H15S_out" end="14400.00" vehsPerHour="120"/>
    <flow id="20W_in-25S_out" begin="0.00" departLane="free" departSpeed="max" reroute="true" fromJunction="H20W_in" toJunction="H25S_out" end="14400.00" vehsPerHour="150"/>
    <flow id="20W_in-10E_out" begin="0.00" departLane="free" departSpeed="max" reroute="true" fromJunction="H20W_in" toJunction="H10E_out" end="14400.00" vehsPerHour="200"/>

    <!-- H15S in Total inflow XXXX-->
    <flow id="15S_in-20W_out" begin="0.00" departLane="free" departSpeed="max" reroute="true" fromJunction="H15S_in" toJunction="H20W_out" end="14400.00" vehsPerHour="700"/>
    <flow id="15S_in-10W_out" begin="0.00" departLane="free" departSpeed="max" reroute="true" fromJunction="H15S_in" toJunction="H10W_out" end="14400.00" vehsPerHour="500"/>
    <flow id="15S_in-15S_out" begin="0.00" departLane="free" departSpeed="max" reroute="true" fromJunction="H15S_in" toJunction="H15S_out" end="14400.00" vehsPerHour="300"/>
    <flow id="15S_in-25S_out" begin="0.00" departLane="free" departSpeed="max" reroute="true" fromJunction="H15S_in" toJunction="H25S_out" end="14400.00" vehsPerHour="400"/>
    <flow id="15S_in-10E_out" begin="0.00" departLane="free" departSpeed="max" reroute="true" fromJunction="H15S_in" toJunction="H10E_out" end="14400.00" vehsPerHour="600"/>
    <flow id="15S_in-20E_out" begin="0.00" departLane="free" departSpeed="max" reroute="true" fromJunction="H15S_in" toJunction="H20E_out" end="14400.00" vehsPerHour="500"/>

    <!-- H25S in Total inflow XXXX-->
    <flow id="25S_in-20W_out" begin="0.00" departLane="free" departSpeed="max" reroute="true" fromJunction="H25S_in" toJunction="H20W_out" end="14400.00" vehsPerHour="900"/>
    <flow id="25S_in-10W_out" begin="0.00" departLane="free" departSpeed="max" reroute="true" fromJunction="H25S_in" toJunction="H10W_out" end="14400.00" vehsPerHour="900"/>
    <flow id="25S_in-15S_out" begin="0.00" departLane="free" departSpeed="max" reroute="true" fromJunction="H25S_in" toJunction="H15S_out" end="14400.00" vehsPerHour="900"/>
    <flow id="25S_in-25S_out" begin="0.00" departLane="free" departSpeed="max" reroute="true" fromJunction="H25S_in" toJunction="H25S_out" end="14400.00" vehsPerHour="900"/>
    <flow id="25S_in-10E_out" begin="0.00" departLane="free" departSpeed="max" reroute="true" fromJunction="H25S_in" toJunction="H10E_out" end="14400.00" vehsPerHour="900"/>
    <flow id="25S_in-20E_out" begin="0.00" departLane="free" departSpeed="max" reroute="true" fromJunction="H25S_in" toJunction="H20E_out" end="14400.00" vehsPerHour="900"/>

    <!-- H20E in Total inflow XXXX-->
    <flow id="20E_in-10W_out" begin="0.00" departLane="free" departSpeed="max" reroute="true" fromJunction="H20E_in" toJunction="H10W_out" end="14400.00" vehsPerHour="900"/>
    <flow id="20E_in-15S_out" begin="0.00" departLane="free" departSpeed="max" reroute="true" fromJunction="H20E_in" toJunction="H15S_out" end="14400.00" vehsPerHour="900"/>
    <flow id="20E_in-25S_out" begin="0.00" departLane="free" departSpeed="max" reroute="true" fromJunction="H20E_in" toJunction="H25S_out" end="14400.00" vehsPerHour="900"/>
    <flow id="20E_in-10E_out" begin="0.00" departLane="free" departSpeed="max" reroute="true" fromJunction="H20E_in" toJunction="H10E_out" end="14400.00" vehsPerHour="900"/>
    <flow id="20E_in-20E_out" begin="0.00" departLane="free" departSpeed="max" reroute="true" fromJunction="H20E_in" toJunction="H20E_out" end="14400.00" vehsPerHour="900"/>
    <flow id="20E_in-15N_out" begin="0.00" departLane="free" departSpeed="max" reroute="true" fromJunction="H20E_in" toJunction="H15N_out" end="14400.00" vehsPerHour="900"/>
    <flow id="20E_in-25N_out" begin="0.00" departLane="free" departSpeed="max" reroute="true" fromJunction="H20E_in" toJunction="H25N_out" end="14400.00" vehsPerHour="900"/>

    <!-- H10E in Total inflow XXXX-->
    <flow id="10E_in-15S_out" begin="0.00" departLane="free" departSpeed="max" reroute="true" fromJunction="H10E_in" toJunction="H15S_out" end="14400.00" vehsPerHour="900"/>
    <flow id="10E_in-25S_out" begin="0.00" departLane="free" departSpeed="max" reroute="true" fromJunction="H10E_in" toJunction="H25S_out" end="14400.00" vehsPerHour="900"/>
    <flow id="10E_in-10E_out" begin="0.00" departLane="free" departSpeed="max" reroute="true" fromJunction="H10E_in" toJunction="H10E_out" end="14400.00" vehsPerHour="900"/>
    <flow id="10E_in-20E_out" begin="0.00" departLane="free" departSpeed="max" reroute="true" fromJunction="H10E_in" toJunction="H20E_out" end="14400.00" vehsPerHour="900"/>
    <flow id="10E_in-15N_out" begin="0.00" departLane="free" departSpeed="max" reroute="true" fromJunction="H10E_in" toJunction="H15N_out" end="14400.00" vehsPerHour="900"/>
    <flow id="10E_in-25N_out" begin="0.00" departLane="free" departSpeed="max" reroute="true" fromJunction="H10E_in" toJunction="H25N_out" end="14400.00" vehsPerHour="900"/>
    <flow id="10E_in-20W_out" begin="0.00" departLane="free" departSpeed="max" reroute="true" fromJunction="H10E_in" toJunction="H20W_out" end="14400.00" vehsPerHour="900"/>

    <!-- H10E_onR_1 -->
    <flow id="10E_onR_1-25S_out" begin="0.00" departLane="free" departSpeed="max" reroute="true" fromJunction="H10E_onR_1" toJunction="H25S_out" end="14400.00" vehsPerHour="100"/>
    <flow id="10E_onR_1-10E_out" begin="0.00" departLane="free" departSpeed="max" reroute="true" fromJunction="H10E_onR_1" toJunction="H10E_out" end="14400.00" vehsPerHour="200"/>
    <flow id="10E_onR_1-20E_out" begin="0.00" departLane="free" departSpeed="max" reroute="true" fromJunction="H10E_onR_1" toJunction="H20E_out" end="14400.00" vehsPerHour="200"/>
    <flow id="10E_onR_1-15N_out" begin="0.00" departLane="free" departSpeed="max" reroute="true" fromJunction="H10E_onR_1" toJunction="H15N_out" end="14400.00" vehsPerHour="200"/>
    <flow id="10E_onR_1-25N_out" begin="0.00" departLane="free" departSpeed="max" reroute="true" fromJunction="H10E_onR_1" toJunction="H25N_out" end="14400.00" vehsPerHour="200"/>
    <flow id="10E_onR_1-20W_out" begin="0.00" departLane="free" departSpeed="max" reroute="true" fromJunction="H10E_onR_1" toJunction="H20W_out" end="14400.00" vehsPerHour="50"/>

    <!-- H10E_onR_2 -->
    <flow id="10E_onR_2-25S_out" begin="0.00" departLane="free" departSpeed="max" reroute="true" fromJunction="H10E_onR_2" toJunction="H25S_out" end="14400.00" vehsPerHour="100"/>
    <flow id="10E_onR_2-10E_out" begin="0.00" departLane="free" departSpeed="max" reroute="true" fromJunction="H10E_onR_2" toJunction="H10E_out" end="14400.00" vehsPerHour="200"/>
    <flow id="10E_onR_2-20E_out" begin="0.00" departLane="free" departSpeed="max" reroute="true" fromJunction="H10E_onR_2" toJunction="H20E_out" end="14400.00" vehsPerHour="200"/>
    <flow id="10E_onR_2-15N_out" begin="0.00" departLane="free" departSpeed="max" reroute="true" fromJunction="H10E_onR_2" toJunction="H15N_out" end="14400.00" vehsPerHour="200"/>
    <flow id="10E_onR_2-25N_out" begin="0.00" departLane="free" departSpeed="max" reroute="true" fromJunction="H10E_onR_2" toJunction="H25N_out" end="14400.00" vehsPerHour="200"/>
    <flow id="10E_onR_2-20W_out" begin="0.00" departLane="free" departSpeed="max" reroute="true" fromJunction="H10E_onR_2" toJunction="H20W_out" end="14400.00" vehsPerHour="50"/>

    <!-- H20E_onR_1 -->
    <flow id="20E_onR_1-25S_out" begin="0.00" departLane="free" departSpeed="max" reroute="true" fromJunction="H20E_onR_1" toJunction="H25S_out" end="14400.00" vehsPerHour="100"/>
    <flow id="20E_onR_1-10E_out" begin="0.00" departLane="free" departSpeed="max" reroute="true" fromJunction="H20E_onR_1" toJunction="H10E_out" end="14400.00" vehsPerHour="200"/>
    <flow id="20E_onR_1-20E_out" begin="0.00" departLane="free" departSpeed="max" reroute="true" fromJunction="H20E_onR_1" toJunction="H20E_out" end="14400.00" vehsPerHour="200"/>
    <flow id="20E_onR_1-15N_out" begin="0.00" departLane="free" departSpeed="max" reroute="true" fromJunction="H20E_onR_1" toJunction="H15N_out" end="14400.00" vehsPerHour="200"/>
    <flow id="20E_onR_1-25N_out" begin="0.00" departLane="free" departSpeed="max" reroute="true" fromJunction="H20E_onR_1" toJunction="H25N_out" end="14400.00" vehsPerHour="200"/>
    <flow id="20E_onR_1-10W_out" begin="0.00" departLane="free" departSpeed="max" reroute="true" fromJunction="H20E_onR_1" toJunction="H10W_out" end="14400.00" vehsPerHour="1"/>
    <flow id="20E_onR_1-15S_out" begin="0.00" departLane="free" departSpeed="max" reroute="true" fromJunction="H20E_onR_1" toJunction="H15S_out" end="14400.00" vehsPerHour="1"/>

    <!-- H10W_onR_1 -->
    <flow id="10W_onR_1-20E_out" begin="0.00" departLane="free" departSpeed="max" reroute="true" fromJunction="H10W_onR_1" toJunction="H20E_out" end="14400.00" vehsPerHour="200"/>
    <flow id="10W_onR_1-15N_out" begin="0.00" departLane="free" departSpeed="max" reroute="true" fromJunction="H10W_onR_1" toJunction="H15N_out" end="14400.00" vehsPerHour="200"/>
    <flow id="10W_onR_1-25N_out" begin="0.00" departLane="free" departSpeed="max" reroute="true" fromJunction="H10W_onR_1" toJunction="H25N_out" end="14400.00" vehsPerHour="200"/>
    <flow id="10W_onR_1-20W_out" begin="0.00" departLane="free" departSpeed="max" reroute="true" fromJunction="H10W_onR_1" toJunction="H20W_out" end="14400.00" vehsPerHour="50"/>
    <flow id="10W_onR_1-10W_out" begin="0.00" departLane="free" departSpeed="max" reroute="true" fromJunction="H10W_onR_1" toJunction="H10W_out" end="14400.00" vehsPerHour="1"/>
    <flow id="10W_onR_1-15S_out" begin="0.00" departLane="free" departSpeed="max" reroute="true" fromJunction="H10W_onR_1" toJunction="H15S_out" end="14400.00" vehsPerHour="1"/>

    <!-- H10W_onR_2 -->
    <flow id="10W_onR_2-20E_out" begin="0.00" departLane="free" departSpeed="max" reroute="true" fromJunction="H10W_onR_2" toJunction="H20E_out" end="14400.00" vehsPerHour="200"/>
    <flow id="10W_onR_2-15N_out" begin="0.00" departLane="free" departSpeed="max" reroute="true" fromJunction="H10W_onR_2" toJunction="H15N_out" end="14400.00" vehsPerHour="200"/>
    <flow id="10W_onR_2-25N_out" begin="0.00" departLane="free" departSpeed="max" reroute="true" fromJunction="H10W_onR_2" toJunction="H25N_out" end="14400.00" vehsPerHour="200"/>
    <flow id="10W_onR_2-20W_out" begin="0.00" departLane="free" departSpeed="max" reroute="true" fromJunction="H10W_onR_2" toJunction="H20W_out" end="14400.00" vehsPerHour="50"/>
    <flow id="10W_onR_2-10W_out" begin="0.00" departLane="free" departSpeed="max" reroute="true" fromJunction="H10W_onR_2" toJunction="H10W_out" end="14400.00" vehsPerHour="1"/>
    <flow id="10W_onR_2-15S_out" begin="0.00" departLane="free" departSpeed="max" reroute="true" fromJunction="H10W_onR_2" toJunction="H15S_out" end="14400.00" vehsPerHour="1"/>

    <!-- H20W_onR_1 -->
    <flow id="20W_onR_1-25S_out" begin="0.00" departLane="free" departSpeed="max" reroute="true" fromJunction="H20W_onR_1" toJunction="H25S_out" end="14400.00" vehsPerHour="100"/>
    <flow id="20W_onR_1-10E_out" begin="0.00" departLane="free" departSpeed="max" reroute="true" fromJunction="H20W_onR_1" toJunction="H10E_out" end="14400.00" vehsPerHour="200"/>
    <flow id="20W_onR_1-15N_out" begin="0.00" departLane="free" departSpeed="max" reroute="true" fromJunction="H20W_onR_1" toJunction="H15N_out" end="14400.00" vehsPerHour="200"/>
    <flow id="20W_onR_1-25N_out" begin="0.00" departLane="free" departSpeed="max" reroute="true" fromJunction="H20W_onR_1" toJunction="H25N_out" end="14400.00" vehsPerHour="200"/>
    <flow id="20W_onR_1-20W_out" begin="0.00" departLane="free" departSpeed="max" reroute="true" fromJunction="H20W_onR_1" toJunction="H20W_out" end="14400.00" vehsPerHour="50"/>
    <flow id="20W_onR_1-10W_out" begin="0.00" departLane="free" departSpeed="max" reroute="true" fromJunction="H20W_onR_1" toJunction="H10W_out" end="14400.00" vehsPerHour="1"/>
    <flow id="20W_onR_1-15S_out" begin="0.00" departLane="free" departSpeed="max" reroute="true" fromJunction="H20W_onR_1" toJunction="H15S_out" end="14400.00" vehsPerHour="1"/>

    <!-- H15N_onR_1 -->
    <flow id="15N_onR_1-25S_out" begin="0.00" departLane="free" departSpeed="max" reroute="true" fromJunction="H15N_onR_1" toJunction="H25S_out" end="14400.00" vehsPerHour="100"/>
    <flow id="15N_onR_1-10E_out" begin="0.00" departLane="free" departSpeed="max" reroute="true" fromJunction="H15N_onR_1" toJunction="H10E_out" end="14400.00" vehsPerHour="200"/>
    <flow id="15N_onR_1-20E_out" begin="0.00" departLane="free" departSpeed="max" reroute="true" fromJunction="H15N_onR_1" toJunction="H20E_out" end="14400.00" vehsPerHour="200"/>
    <flow id="15N_onR_1-15N_out" begin="0.00" departLane="free" departSpeed="max" reroute="true" fromJunction="H15N_onR_1" toJunction="H15N_out" end="14400.00" vehsPerHour="200"/>
    <flow id="15N_onR_1-25N_out" begin="0.00" departLane="free" departSpeed="max" reroute="true" fromJunction="H15N_onR_1" toJunction="H25N_out" end="14400.00" vehsPerHour="200"/>
    <flow id="15N_onR_1-20W_out" begin="0.00" departLane="free" departSpeed="max" reroute="true" fromJunction="H15N_onR_1" toJunction="H20W_out" end="14400.00" vehsPerHour="50"/>

    <!-- H15N_onR_2 -->
    <flow id="15N_onR_2-15N_out" begin="0.00" departLane="free" departSpeed="max" reroute="true" fromJunction="H15N_onR_2" toJunction="H15N_out" end="14400.00" vehsPerHour="200"/>

    <!-- H25N_onR_1 -->
    <flow id="25N_onR_1-20E_out" begin="0.00" departLane="free" departSpeed="max" reroute="true" fromJunction="H25N_onR_1" toJunction="H20E_out" end="14400.00" vehsPerHour="200"/>
    <flow id="25N_onR_1-15N_out" begin="0.00" departLane="free" departSpeed="max" reroute="true" fromJunction="H25N_onR_1" toJunction="H15N_out" end="14400.00" vehsPerHour="200"/>
    <flow id="25N_onR_1-25N_out" begin="0.00" departLane="free" departSpeed="max" reroute="true" fromJunction="H25N_onR_1" toJunction="H25N_out" end="14400.00" vehsPerHour="200"/>
    <flow id="25N_onR_1-20W_out" begin="0.00" departLane="free" departSpeed="max" reroute="true" fromJunction="H25N_onR_1" toJunction="H20W_out" end="14400.00" vehsPerHour="50"/>
    <flow id="25N_onR_1-10W_out" begin="0.00" departLane="free" departSpeed="max" reroute="true" fromJunction="H25N_onR_1" toJunction="H10W_out" end="14400.00" vehsPerHour="1"/>
    <flow id="25N_onR_1-15S_out" begin="0.00" departLane="free" departSpeed="max" reroute="true" fromJunction="H25N_onR_1" toJunction="H15S_out" end="14400.00" vehsPerHour="1"/>

    <!-- H25N_onR_2 -->
    <flow id="25N_onR_2-15N_out" begin="0.00" departLane="free" departSpeed="max" reroute="true" fromJunction="H25N_onR_2" toJunction="H15N_out" end="14400.00" vehsPerHour="200"/>
    <flow id="25N_onR_2-25N_out" begin="0.00" departLane="free" departSpeed="max" reroute="true" fromJunction="H25N_onR_2" toJunction="H25N_out" end="14400.00" vehsPerHour="200"/>

    <!-- H15S_onR_1 -->
    <flow id="15S_onR_1-25S_out" begin="0.00" departLane="free" departSpeed="max" reroute="true" fromJunction="H15S_onR_1" toJunction="H25S_out" end="14400.00" vehsPerHour="100"/>
    <flow id="15S_onR_1-10E_out" begin="0.00" departLane="free" departSpeed="max" reroute="true" fromJunction="H15S_onR_1" toJunction="H10E_out" end="14400.00" vehsPerHour="200"/>
    <flow id="15S_onR_1-20E_out" begin="0.00" departLane="free" departSpeed="max" reroute="true" fromJunction="H15S_onR_1" toJunction="H20E_out" end="14400.00" vehsPerHour="200"/>
    <flow id="15S_onR_1-20W_out" begin="0.00" departLane="free" departSpeed="max" reroute="true" fromJunction="H15S_onR_1" toJunction="H20W_out" end="14400.00" vehsPerHour="50"/>
    <flow id="15S_onR_1-10W_out" begin="0.00" departLane="free" departSpeed="max" reroute="true" fromJunction="H15S_onR_1" toJunction="H10W_out" end="14400.00" vehsPerHour="1"/>
    <flow id="15S_onR_1-15S_out" begin="0.00" departLane="free" departSpeed="max" reroute="true" fromJunction="H15S_onR_1" toJunction="H15S_out" end="14400.00" vehsPerHour="1"/>

    <!-- H15S_onR_2 -->
    <flow id="15S_onR_2-25S_out" begin="0.00" departLane="free" departSpeed="max" reroute="true" fromJunction="H15S_onR_2" toJunction="H25S_out" end="14400.00" vehsPerHour="100"/>
    <flow id="15S_onR_2-10E_out" begin="0.00" departLane="free" departSpeed="max" reroute="true" fromJunction="H15S_onR_2" toJunction="H10E_out" end="14400.00" vehsPerHour="200"/>
    <flow id="15S_onR_2-20E_out" begin="0.00" departLane="free" departSpeed="max" reroute="true" fromJunction="H15S_onR_2" toJunction="H20E_out" end="14400.00" vehsPerHour="200"/>
    <flow id="15S_onR_2-10W_out" begin="0.00" departLane="free" departSpeed="max" reroute="true" fromJunction="H15S_onR_2" toJunction="H10W_out" end="14400.00" vehsPerHour="1"/>
    <flow id="15S_onR_2-15S_out" begin="0.00" departLane="free" departSpeed="max" reroute="true" fromJunction="H15S_onR_2" toJunction="H15S_out" end="14400.00" vehsPerHour="1"/>

    <!-- H25S_onR_1 -->
    <flow id="25S_onR_1-25S_out" begin="0.00" departLane="free" departSpeed="max" reroute="true" fromJunction="H25S_onR_1" toJunction="H25S_out" end="14400.00" vehsPerHour="100"/>
    <flow id="25S_onR_1-10E_out" begin="0.00" departLane="free" departSpeed="max" reroute="true" fromJunction="H25S_onR_1" toJunction="H10E_out" end="14400.00" vehsPerHour="200"/>
    <flow id="25S_onR_1-20E_out" begin="0.00" departLane="free" departSpeed="max" reroute="true" fromJunction="H25S_onR_1" toJunction="H20E_out" end="14400.00" vehsPerHour="200"/>
    <flow id="25S_onR_1-20W_out" begin="0.00" departLane="free" departSpeed="max" reroute="true" fromJunction="H25S_onR_1" toJunction="H20W_out" end="14400.00" vehsPerHour="50"/>
    <flow id="25S_onR_1-10W_out" begin="0.00" departLane="free" departSpeed="max" reroute="true" fromJunction="H25S_onR_1" toJunction="H10W_out" end="14400.00" vehsPerHour="1"/>
    <flow id="25S_onR_1-15S_out" begin="0.00" departLane="free" departSpeed="max" reroute="true" fromJunction="H25S_onR_1" toJunction="H15S_out" end="14400.00" vehsPerHour="1"/>

    <!-- H25S_onR_2 -->
    <flow id="25S_onR_2-25S_out" begin="0.00" departLane="free" departSpeed="max" reroute="true" fromJunction="H25S_onR_2" toJunction="H25S_out" end="14400.00" vehsPerHour="100"/>
    <flow id="25S_onR_2-20E_out" begin="0.00" departLane="free" departSpeed="max" reroute="true" fromJunction="H25S_onR_2" toJunction="H20E_out" end="14400.00" vehsPerHour="200"/>
    <flow id="25S_onR_2-20W_out" begin="0.00" departLane="free" departSpeed="max" reroute="true" fromJunction="H25S_onR_2" toJunction="H20W_out" end="14400.00" vehsPerHour="50"/>
    <flow id="25S_onR_2-10W_out" begin="0.00" departLane="free" departSpeed="max" reroute="true" fromJunction="H25S_onR_2" toJunction="H10W_out" end="14400.00" vehsPerHour="1"/>
    <flow id="25S_onR_2-15S_out" begin="0.00" departLane="free" departSpeed="max" reroute="true" fromJunction="H25S_onR_2" toJunction="H15S_out" end="14400.00" vehsPerHour="1"/>

</routes>
