<?xml version="1.0" encoding="UTF-8"?>

<!-- generated on 2024-07-01 18:51:05 by Eclipse SUMO netedit Version 1.19.0
<configuration xmlns:xsi="http://www.w3.org/2001/XMLSchema-instance" xsi:noNamespaceSchemaLocation="http://sumo.dlr.de/xsd/neteditConfiguration.xsd">

    <input>
        <sumo-net-file value="D:\Research_Projects\SUMO_TrafficNetwork\Network_Files\Traffic_Net.net.xml"/>
    </input>

    <output>
        <output-file value="D:\Research_Projects\SUMO_TrafficNetwork\Network_Files\Traffic_Net.net.xml"/>
    </output>

    <processing>
        <geometry.min-radius.fix.railways value="false"/>
        <geometry.max-grade.fix value="false"/>
        <offset.disable-normalization value="true"/>
        <lefthand value="0"/>
    </processing>

    <junctions>
        <no-turnarounds value="true"/>
        <junctions.corner-detail value="5"/>
        <junctions.limit-turn-speed value="5.50"/>
        <rectangular-lane-cut value="0"/>
    </junctions>

    <pedestrian>
        <walkingareas value="0"/>
    </pedestrian>

</configuration>
-->

<net version="1.16" junctionCornerDetail="5" limitTurnSpeed="5.50" xmlns:xsi="http://www.w3.org/2001/XMLSchema-instance" xsi:noNamespaceSchemaLocation="http://sumo.dlr.de/xsd/net_file.xsd">

    <location netOffset="0.00,0.00" convBoundary="-1328.00,-4534.47,5035.58,3188.51" origBoundary="-10000000000.00,-10000000000.00,10000000000.00,10000000000.00" projParameter="!"/>

    <edge id=":J0_0" function="internal">
        <lane id=":J0_0_0" index="0" speed="30.17" length="19.28" shape="451.71,1452.02 452.52,1457.63 453.70,1461.35 455.38,1464.95 457.68,1470.21"/>
        <lane id=":J0_0_1" index="1" speed="30.17" length="20.20" shape="448.52,1452.32 449.36,1458.20 450.58,1462.12 452.31,1465.90 454.71,1471.39"/>
    </edge>
    <edge id=":J0_2" function="internal">
        <lane id=":J0_2_0" index="0" speed="33.52" length="20.20" shape="448.52,1452.32 450.53,1472.41"/>
        <lane id=":J0_2_1" index="1" speed="33.52" length="20.20" shape="445.34,1452.62 447.35,1472.71"/>
        <lane id=":J0_2_2" index="2" speed="33.52" length="20.20" shape="442.15,1452.91 444.16,1473.02"/>
    </edge>
    <edge id=":J1_0" function="internal">
        <lane id=":J1_0_0" index="0" speed="30.17" length="18.29" shape="35.09,-462.16 40.45,-462.45 44.06,-463.28 47.58,-464.63 52.70,-466.48"/>
        <lane id=":J1_0_1" index="1" speed="30.17" length="19.28" shape="35.09,-458.96 40.75,-459.25 44.56,-460.10 48.28,-461.50 53.68,-463.44"/>
    </edge>
    <edge id=":J1_2" function="internal">
        <lane id=":J1_2_0" index="0" speed="33.52" length="19.30" shape="35.09,-458.96 54.38,-459.10"/>
        <lane id=":J1_2_1" index="1" speed="33.52" length="19.30" shape="35.10,-455.76 54.39,-455.90"/>
        <lane id=":J1_2_2" index="2" speed="33.52" length="19.30" shape="35.10,-452.56 54.41,-452.70"/>
    </edge>
    <edge id=":J10_0" function="internal">
        <lane id=":J10_0_0" index="0" speed="33.52" length="18.84" shape="437.77,1748.36 435.84,1729.63"/>
        <lane id=":J10_0_1" index="1" speed="33.52" length="18.84" shape="440.96,1748.04 439.02,1729.30"/>
        <lane id=":J10_0_2" index="2" speed="33.52" length="18.84" shape="444.14,1747.71 442.20,1728.97"/>
    </edge>
    <edge id=":J10_3" function="internal">
        <lane id=":J10_3_0" index="0" speed="30.17" length="18.32" shape="430.24,1747.45 431.53,1742.31 432.48,1738.76 432.92,1735.18 432.65,1729.95"/>
        <lane id=":J10_3_1" index="1" speed="30.17" length="18.32" shape="433.37,1748.12 434.71,1742.69 435.70,1738.94 436.13,1735.15 435.84,1729.63"/>
    </edge>
    <edge id=":J100_0" function="internal">
        <lane id=":J100_0_0" index="0" speed="15.33" length="4.10" shape="3144.61,-3412.11 3145.83,-3412.14 3146.66,-3412.21 3147.47,-3412.41 3148.61,-3412.83"/>
    </edge>
    <edge id=":J100_1" function="internal">
        <lane id=":J100_1_0" index="0" speed="33.52" length="3.10" shape="3144.69,-3408.91 3145.62,-3408.88 3146.25,-3408.76 3146.89,-3408.65 3147.82,-3408.60"/>
        <lane id=":J100_1_1" index="1" speed="33.52" length="3.10" shape="3144.76,-3405.71 3145.68,-3405.68 3146.31,-3405.56 3146.94,-3405.45 3147.86,-3405.40"/>
        <lane id=":J100_1_2" index="2" speed="33.52" length="3.10" shape="3144.84,-3402.51 3145.75,-3402.48 3146.37,-3402.36 3146.99,-3402.25 3147.90,-3402.20"/>
        <lane id=":J100_1_3" index="3" speed="33.52" length="3.10" shape="3144.91,-3399.31 3145.81,-3399.28 3146.42,-3399.16 3147.04,-3399.05 3147.94,-3399.00"/>
    </edge>
    <edge id=":J103_0" function="internal">
        <lane id=":J103_0_0" index="0" speed="9.94" length="3.74" shape="1517.53,566.17 1516.58,566.73 1515.97,567.20 1515.48,567.78 1514.87,568.70"/>
    </edge>
    <edge id=":J103_1" function="internal">
        <lane id=":J103_1_0" index="0" speed="33.52" length="3.78" shape="1514.22,563.79 1512.18,566.97"/>
        <lane id=":J103_1_1" index="1" speed="33.52" length="3.78" shape="1511.52,562.06 1509.48,565.25"/>
        <lane id=":J103_1_2" index="2" speed="33.52" length="3.78" shape="1508.83,560.33 1506.79,563.52"/>
        <lane id=":J103_1_3" index="3" speed="33.52" length="3.78" shape="1506.13,558.61 1504.09,561.79"/>
    </edge>
    <edge id=":J104_0" function="internal">
        <lane id=":J104_0_0" index="0" speed="12.40" length="3.61" shape="1339.54,842.26 1338.97,843.17 1338.64,843.83 1338.44,844.53 1338.24,845.58"/>
    </edge>
    <edge id=":J104_1" function="internal">
        <lane id=":J104_1_0" index="0" speed="33.52" length="4.22" shape="1336.84,840.53 1334.78,844.18"/>
        <lane id=":J104_1_1" index="1" speed="33.52" length="4.22" shape="1334.15,838.81 1332.07,842.47"/>
        <lane id=":J104_1_2" index="2" speed="33.52" length="4.22" shape="1331.45,837.08 1329.37,840.76"/>
        <lane id=":J104_1_3" index="3" speed="33.52" length="4.22" shape="1328.76,835.35 1326.66,839.06"/>
    </edge>
    <edge id=":J107_0" function="internal">
        <lane id=":J107_0_0" index="0" speed="13.62" length="3.57" shape="2605.60,-1243.66 2606.45,-1244.29 2607.00,-1244.77 2607.45,-1245.34 2608.04,-1246.22"/>
    </edge>
    <edge id=":J107_1" function="internal">
        <lane id=":J107_1_0" index="0" speed="33.52" length="3.11" shape="2609.18,-1241.75 2610.72,-1244.48"/>
        <lane id=":J107_1_1" index="1" speed="33.52" length="3.11" shape="2611.87,-1240.03 2613.41,-1242.74"/>
        <lane id=":J107_1_2" index="2" speed="33.52" length="3.11" shape="2614.56,-1238.30 2616.09,-1240.99"/>
        <lane id=":J107_1_3" index="3" speed="33.52" length="3.11" shape="2617.26,-1236.57 2618.77,-1239.25"/>
    </edge>
    <edge id=":J108_0" function="internal">
        <lane id=":J108_0_0" index="0" speed="12.19" length="3.62" shape="2795.96,-1535.59 2796.53,-1536.49 2796.86,-1537.15 2797.07,-1537.86 2797.27,-1538.91"/>
    </edge>
    <edge id=":J108_1" function="internal">
        <lane id=":J108_1_0" index="0" speed="33.52" length="4.16" shape="2798.64,-1533.85 2800.71,-1537.41"/>
        <lane id=":J108_1_1" index="1" speed="33.52" length="4.16" shape="2801.32,-1532.10 2803.41,-1535.69"/>
        <lane id=":J108_1_2" index="2" speed="33.52" length="4.16" shape="2804.01,-1530.36 2806.10,-1533.96"/>
        <lane id=":J108_1_3" index="3" speed="33.52" length="4.16" shape="2806.69,-1528.62 2808.80,-1532.24"/>
    </edge>
    <edge id=":J11_0" function="internal">
        <lane id=":J11_0_0" index="0" speed="30.17" length="24.15" shape="243.82,-203.44 243.40,-210.85 242.49,-216.15 241.25,-221.03 239.81,-227.18"/>
        <lane id=":J11_0_1" index="1" speed="30.17" length="24.74" shape="247.01,-203.49 246.59,-211.11 245.66,-216.60 244.39,-221.61 242.95,-227.81"/>
    </edge>
    <edge id=":J11_2" function="internal">
        <lane id=":J11_2_0" index="0" speed="33.52" length="24.73" shape="247.01,-203.49 246.87,-228.22"/>
        <lane id=":J11_2_1" index="1" speed="33.52" length="24.73" shape="250.21,-203.53 250.07,-228.26"/>
        <lane id=":J11_2_2" index="2" speed="33.52" length="24.73" shape="253.41,-203.57 253.26,-228.29"/>
    </edge>
    <edge id=":J111_0" function="internal">
        <lane id=":J111_0_0" index="0" speed="33.52" length="3.86" shape="193.48,-1818.57 193.30,-1822.43"/>
        <lane id=":J111_0_1" index="1" speed="33.52" length="3.86" shape="196.68,-1818.71 196.49,-1822.56"/>
        <lane id=":J111_0_2" index="2" speed="33.52" length="3.86" shape="199.87,-1818.84 199.69,-1822.69"/>
        <lane id=":J111_0_3" index="3" speed="33.52" length="3.86" shape="203.07,-1818.97 202.89,-1822.82"/>
    </edge>
    <edge id=":J111_4" function="internal">
        <lane id=":J111_4_0" index="0" speed="8.81" length="3.84" shape="189.23,-1818.65 189.76,-1819.65 190.04,-1820.39 190.12,-1821.17 190.10,-1822.30"/>
    </edge>
    <edge id=":J112_0" function="internal">
        <lane id=":J112_0_0" index="0" speed="9.09" length="3.81" shape="178.63,-2104.76 178.57,-2105.89 178.42,-2106.66 178.10,-2107.37 177.51,-2108.33"/>
    </edge>
    <edge id=":J112_1" function="internal">
        <lane id=":J112_1_0" index="0" speed="33.52" length="3.91" shape="181.83,-2104.89 181.65,-2108.79"/>
        <lane id=":J112_1_1" index="1" speed="33.52" length="3.91" shape="185.03,-2105.02 184.85,-2108.93"/>
        <lane id=":J112_1_2" index="2" speed="33.52" length="3.91" shape="188.22,-2105.15 188.04,-2109.06"/>
        <lane id=":J112_1_3" index="3" speed="33.52" length="3.91" shape="191.42,-2105.28 191.24,-2109.19"/>
    </edge>
    <edge id=":J115_0" function="internal">
        <lane id=":J115_0_0" index="0" speed="18.62" length="3.50" shape="870.22,-469.37 871.21,-469.06 871.90,-468.90 872.61,-468.84 873.65,-468.83"/>
    </edge>
    <edge id=":J115_1" function="internal">
        <lane id=":J115_1_0" index="0" speed="33.52" length="3.51" shape="870.14,-465.63 873.65,-465.63"/>
        <lane id=":J115_1_1" index="1" speed="33.52" length="3.51" shape="870.15,-462.43 873.66,-462.43"/>
        <lane id=":J115_1_2" index="2" speed="33.52" length="3.51" shape="870.15,-459.23 873.67,-459.23"/>
        <lane id=":J115_1_3" index="3" speed="33.52" length="3.51" shape="870.16,-456.03 873.68,-456.03"/>
    </edge>
    <edge id=":J116_0" function="internal">
        <lane id=":J116_0_0" index="0" speed="14.47" length="3.56" shape="1198.86,-469.60 1199.91,-469.61 1200.63,-469.68 1201.33,-469.87 1202.32,-470.23"/>
    </edge>
    <edge id=":J116_1" function="internal">
        <lane id=":J116_1_0" index="0" speed="33.52" length="3.58" shape="1198.87,-466.40 1202.44,-466.40"/>
        <lane id=":J116_1_1" index="1" speed="33.52" length="3.58" shape="1198.87,-463.20 1202.45,-463.20"/>
        <lane id=":J116_1_2" index="2" speed="33.52" length="3.58" shape="1198.88,-460.00 1202.46,-460.00"/>
        <lane id=":J116_1_3" index="3" speed="33.52" length="3.58" shape="1198.89,-456.80 1202.47,-456.80"/>
    </edge>
    <edge id=":J119_0" function="internal">
        <lane id=":J119_0_0" index="0" speed="31.29" length="3.42" shape="983.19,-420.98 982.18,-420.96 981.49,-420.90 980.81,-420.77 979.83,-420.50"/>
    </edge>
    <edge id=":J119_1" function="internal">
        <lane id=":J119_1_0" index="0" speed="33.52" length="3.43" shape="983.17,-424.18 979.74,-424.15"/>
        <lane id=":J119_1_1" index="1" speed="33.52" length="3.43" shape="983.14,-427.38 979.71,-427.35"/>
        <lane id=":J119_1_2" index="2" speed="33.52" length="3.43" shape="983.12,-430.58 979.69,-430.55"/>
        <lane id=":J119_1_3" index="3" speed="33.52" length="3.43" shape="983.09,-433.78 979.66,-433.75"/>
    </edge>
    <edge id=":J12_0" function="internal">
        <lane id=":J12_0_0" index="0" speed="30.17" length="20.15" shape="1965.05,-130.88 1960.41,-127.33 1957.12,-124.95 1954.26,-122.19 1950.88,-117.51"/>
        <lane id=":J12_0_1" index="1" speed="30.17" length="20.15" shape="1963.02,-133.35 1958.22,-129.67 1954.78,-127.14 1951.75,-124.18 1948.19,-119.24"/>
    </edge>
    <edge id=":J12_2" function="internal">
        <lane id=":J12_2_0" index="0" speed="33.52" length="20.65" shape="1959.79,-136.26 1948.19,-119.24"/>
        <lane id=":J12_2_1" index="1" speed="33.52" length="20.65" shape="1957.13,-138.03 1945.50,-120.96"/>
        <lane id=":J12_2_2" index="2" speed="33.52" length="20.65" shape="1954.46,-139.80 1942.80,-122.69"/>
    </edge>
    <edge id=":J120_0" function="internal">
        <lane id=":J120_0_0" index="0" speed="13.81" length="3.57" shape="1315.13,-423.08 1314.14,-423.44 1313.43,-423.63 1312.71,-423.70 1311.65,-423.70"/>
    </edge>
    <edge id=":J120_1" function="internal">
        <lane id=":J120_1_0" index="0" speed="33.52" length="3.59" shape="1315.22,-426.93 1311.62,-426.90"/>
        <lane id=":J120_1_1" index="1" speed="33.52" length="3.59" shape="1315.19,-430.13 1311.60,-430.10"/>
        <lane id=":J120_1_2" index="2" speed="33.52" length="3.59" shape="1315.16,-433.33 1311.57,-433.30"/>
        <lane id=":J120_1_3" index="3" speed="33.52" length="3.59" shape="1315.14,-436.53 1311.54,-436.50"/>
    </edge>
    <edge id=":J123_0" function="internal">
        <lane id=":J123_0_0" index="0" speed="14.39" length="3.67" shape="1181.20,-3326.39 1180.11,-3326.35 1179.37,-3326.26 1178.65,-3326.05 1177.64,-3325.66"/>
    </edge>
    <edge id=":J123_1" function="internal">
        <lane id=":J123_1_0" index="0" speed="33.52" length="4.28" shape="1181.14,-3329.59 1176.91,-3329.26"/>
        <lane id=":J123_1_1" index="1" speed="33.52" length="4.28" shape="1181.09,-3332.78 1176.83,-3332.46"/>
        <lane id=":J123_1_2" index="2" speed="33.52" length="4.28" shape="1181.04,-3335.98 1176.76,-3335.66"/>
        <lane id=":J123_1_3" index="3" speed="33.52" length="4.28" shape="1180.99,-3339.18 1176.68,-3338.86"/>
    </edge>
    <edge id=":J124_0" function="internal">
        <lane id=":J124_0_0" index="0" speed="16.79" length="3.52" shape="1515.12,-3331.23 1514.13,-3331.55 1513.43,-3331.71 1512.72,-3331.76 1511.67,-3331.75"/>
    </edge>
    <edge id=":J124_1" function="internal">
        <lane id=":J124_1_0" index="0" speed="33.52" length="3.87" shape="1515.48,-3334.90 1511.62,-3334.95"/>
        <lane id=":J124_1_1" index="1" speed="33.52" length="3.87" shape="1515.44,-3338.10 1511.57,-3338.15"/>
        <lane id=":J124_1_2" index="2" speed="33.52" length="3.87" shape="1515.39,-3341.30 1511.52,-3341.35"/>
        <lane id=":J124_1_3" index="3" speed="33.52" length="3.87" shape="1515.35,-3344.50 1511.47,-3344.55"/>
    </edge>
    <edge id=":J127_0" function="internal">
        <lane id=":J127_0_0" index="0" speed="15.25" length="3.67" shape="2741.68,-3347.86 2740.59,-3347.83 2739.85,-3347.75 2739.12,-3347.56 2738.11,-3347.18"/>
    </edge>
    <edge id=":J127_1" function="internal">
        <lane id=":J127_1_0" index="0" speed="33.52" length="3.05" shape="2741.61,-3351.06 2738.54,-3351.23"/>
        <lane id=":J127_1_1" index="1" speed="33.52" length="3.05" shape="2741.55,-3354.26 2738.49,-3354.43"/>
        <lane id=":J127_1_2" index="2" speed="33.52" length="3.05" shape="2741.49,-3357.46 2738.45,-3357.63"/>
        <lane id=":J127_1_3" index="3" speed="33.52" length="3.05" shape="2741.42,-3360.66 2738.41,-3360.83"/>
    </edge>
    <edge id=":J128_0" function="internal">
        <lane id=":J128_0_0" index="0" speed="12.25" length="3.62" shape="3144.48,-3355.12 3143.48,-3355.51 3142.77,-3355.70 3142.03,-3355.77 3140.96,-3355.76"/>
    </edge>
    <edge id=":J128_1" function="internal">
        <lane id=":J128_1_0" index="0" speed="33.52" length="4.09" shape="3144.96,-3358.86 3140.90,-3358.96"/>
        <lane id=":J128_1_1" index="1" speed="33.52" length="4.09" shape="3144.92,-3362.06 3140.84,-3362.16"/>
        <lane id=":J128_1_2" index="2" speed="33.52" length="4.09" shape="3144.87,-3365.26 3140.77,-3365.36"/>
        <lane id=":J128_1_3" index="3" speed="33.52" length="4.09" shape="3144.83,-3368.46 3140.71,-3368.56"/>
    </edge>
    <edge id=":J13_0" function="internal">
        <lane id=":J13_0_0" index="0" speed="30.17" length="19.06" shape="2389.96,-776.56 2387.11,-771.69 2385.52,-768.17 2384.22,-764.50 2382.25,-759.19"/>
        <lane id=":J13_0_1" index="1" speed="30.17" length="19.65" shape="2387.25,-778.26 2384.31,-773.25 2382.66,-769.62 2381.31,-765.84 2379.27,-760.37"/>
    </edge>
    <edge id=":J13_2" function="internal">
        <lane id=":J13_2_0" index="0" speed="33.52" length="19.67" shape="2387.25,-778.26 2375.72,-762.23"/>
        <lane id=":J13_2_1" index="1" speed="33.52" length="19.67" shape="2384.54,-779.97 2373.05,-764.00"/>
        <lane id=":J13_2_2" index="2" speed="33.52" length="19.67" shape="2381.83,-781.67 2370.38,-765.77"/>
    </edge>
    <edge id=":J131_0" function="internal">
        <lane id=":J131_0_0" index="0" speed="13.16" length="4.22" shape="1265.79,853.66 1266.80,852.93 1267.47,852.38 1268.03,851.73 1268.70,850.68"/>
    </edge>
    <edge id=":J131_1" function="internal">
        <lane id=":J131_1_0" index="0" speed="33.52" length="4.93" shape="1268.50,856.20 1269.32,855.02 1269.98,854.28 1270.63,853.53 1271.44,852.34"/>
        <lane id=":J131_1_1" index="1" speed="33.52" length="4.93" shape="1271.21,857.90 1272.04,856.71 1272.70,855.96 1273.36,855.20 1274.17,854.00"/>
        <lane id=":J131_1_2" index="2" speed="33.52" length="4.93" shape="1273.92,859.60 1274.76,858.40 1275.43,857.64 1276.08,856.87 1276.91,855.66"/>
        <lane id=":J131_1_3" index="3" speed="33.52" length="4.93" shape="1276.63,861.30 1279.65,857.31"/>
    </edge>
    <edge id=":J132_0" function="internal">
        <lane id=":J132_0_0" index="0" speed="12.48" length="3.94" shape="1455.60,542.37 1456.21,541.37 1456.57,540.65 1456.79,539.87 1456.97,538.72"/>
    </edge>
    <edge id=":J132_1" function="internal">
        <lane id=":J132_1_0" index="0" speed="33.52" length="3.10" shape="1458.34,544.03 1458.87,543.26 1459.31,542.78 1459.74,542.31 1460.28,541.54"/>
        <lane id=":J132_1_1" index="1" speed="33.52" length="3.10" shape="1461.08,545.69 1461.60,544.93 1462.03,544.46 1462.46,543.99 1463.00,543.23"/>
        <lane id=":J132_1_2" index="2" speed="33.52" length="3.10" shape="1463.81,547.35 1464.33,546.60 1464.76,546.13 1465.19,545.67 1465.72,544.93"/>
        <lane id=":J132_1_3" index="3" speed="33.52" length="3.10" shape="1466.55,549.01 1467.06,548.27 1467.48,547.81 1467.91,547.35 1468.43,546.62"/>
    </edge>
    <edge id=":J136_0" function="internal">
        <lane id=":J136_0_0" index="0" speed="20.69" length="3.48" shape="357.89,406.51 357.68,407.52 357.59,408.22 357.59,408.93 357.68,409.96"/>
    </edge>
    <edge id=":J136_1" function="internal">
        <lane id=":J136_1_0" index="0" speed="33.52" length="3.50" shape="354.17,406.78 354.49,410.26"/>
        <lane id=":J136_1_1" index="1" speed="33.52" length="3.50" shape="350.98,407.07 351.31,410.55"/>
        <lane id=":J136_1_2" index="2" speed="33.52" length="3.50" shape="347.80,407.37 348.12,410.85"/>
        <lane id=":J136_1_3" index="3" speed="33.52" length="3.50" shape="344.61,407.67 344.94,411.15"/>
    </edge>
    <edge id=":J137_0" function="internal">
        <lane id=":J137_0_0" index="0" speed="13.23" length="3.59" shape="385.63,709.45 385.74,710.50 385.89,711.22 386.15,711.90 386.62,712.85"/>
    </edge>
    <edge id=":J137_1" function="internal">
        <lane id=":J137_1_0" index="0" speed="33.52" length="3.61" shape="382.45,709.74 382.78,713.34"/>
        <lane id=":J137_1_1" index="1" speed="33.52" length="3.61" shape="379.26,710.04 379.59,713.63"/>
        <lane id=":J137_1_2" index="2" speed="33.52" length="3.61" shape="376.07,710.34 376.41,713.93"/>
        <lane id=":J137_1_3" index="3" speed="33.52" length="3.61" shape="372.89,710.63 373.22,714.23"/>
    </edge>
    <edge id=":J14_0" function="internal">
        <lane id=":J14_0_0" index="0" speed="24.18" length="15.01" shape="305.97,2397.79 308.01,2393.91 308.87,2390.99 309.20,2387.90 309.67,2383.45"/>
        <lane id=":J14_0_1" index="1" speed="25.19" length="16.31" shape="308.71,2399.44 310.95,2395.23 311.92,2392.07 312.31,2388.71 312.84,2383.89"/>
    </edge>
    <edge id=":J14_2" function="internal">
        <lane id=":J14_2_0" index="0" speed="33.52" length="16.37" shape="308.71,2399.44 317.33,2385.49"/>
        <lane id=":J14_2_1" index="1" speed="33.52" length="16.37" shape="311.45,2401.09 320.06,2387.16"/>
        <lane id=":J14_2_2" index="2" speed="33.52" length="16.37" shape="314.19,2402.74 322.79,2388.83"/>
    </edge>
    <edge id=":J140_0" function="internal">
        <lane id=":J140_0_0" index="0" speed="33.52" length="3.31" shape="357.93,1005.36 357.42,1002.06"/>
        <lane id=":J140_0_1" index="1" speed="33.52" length="3.31" shape="361.11,1005.03 360.61,1001.75"/>
        <lane id=":J140_0_2" index="2" speed="33.52" length="3.31" shape="364.30,1004.71 363.79,1001.45"/>
        <lane id=":J140_0_3" index="3" speed="33.52" length="3.31" shape="367.48,1004.38 366.98,1001.14"/>
    </edge>
    <edge id=":J140_4" function="internal">
        <lane id=":J140_4_0" index="0" speed="10.74" length="3.69" shape="353.78,1005.97 354.14,1004.94 354.31,1004.20 354.33,1003.45 354.24,1002.37"/>
    </edge>
    <edge id=":J141_0" function="internal">
        <lane id=":J141_0_0" index="0" speed="15.73" length="3.53" shape="318.06,626.67 317.95,625.63 317.82,624.92 317.57,624.25 317.14,623.29"/>
    </edge>
    <edge id=":J141_1" function="internal">
        <lane id=":J141_1_0" index="0" speed="33.52" length="4.03" shape="321.25,626.36 320.70,622.39"/>
        <lane id=":J141_1_1" index="1" speed="33.52" length="4.03" shape="324.43,626.06 323.88,622.07"/>
        <lane id=":J141_1_2" index="2" speed="33.52" length="4.03" shape="327.62,625.75 327.07,621.75"/>
        <lane id=":J141_1_3" index="3" speed="33.52" length="4.03" shape="330.80,625.44 330.25,621.43"/>
    </edge>
    <edge id=":J15_0" function="internal">
        <lane id=":J15_0_0" index="0" speed="30.17" length="19.54" shape="773.42,1733.79 770.63,1738.80 769.34,1742.54 768.55,1746.50 767.29,1752.17"/>
        <lane id=":J15_0_1" index="1" speed="30.17" length="20.52" shape="770.72,1732.09 767.76,1737.37 766.37,1741.32 765.52,1745.48 764.19,1751.36"/>
    </edge>
    <edge id=":J15_2" function="internal">
        <lane id=":J15_2_0" index="0" speed="33.52" length="20.52" shape="770.72,1732.09 760.20,1749.66"/>
        <lane id=":J15_2_1" index="1" speed="33.52" length="20.52" shape="768.01,1730.38 757.48,1747.99"/>
        <lane id=":J15_2_2" index="2" speed="33.52" length="20.52" shape="765.30,1728.67 754.75,1746.32"/>
    </edge>
    <edge id=":J16_0" function="internal">
        <lane id=":J16_0_0" index="0" speed="33.52" length="29.36" shape="242.15,-689.75 242.58,-719.01"/>
        <lane id=":J16_0_1" index="1" speed="33.52" length="29.36" shape="245.35,-689.78 245.77,-719.14"/>
        <lane id=":J16_0_2" index="2" speed="33.52" length="29.36" shape="248.55,-689.82 248.97,-719.28"/>
    </edge>
    <edge id=":J16_3" function="internal">
        <lane id=":J16_3_0" index="0" speed="30.17" length="29.02" shape="235.05,-690.69 236.59,-697.23 238.13,-703.12 239.21,-709.84 239.38,-718.88"/>
        <lane id=":J16_3_1" index="1" speed="30.17" length="29.02" shape="238.20,-690.10 239.74,-696.71 241.31,-702.76 242.41,-709.71 242.58,-719.01"/>
    </edge>
    <edge id=":J17_0" function="internal">
        <lane id=":J17_0_0" index="0" speed="30.17" length="13.87" shape="3791.27,-3084.17 3793.36,-3087.69 3794.49,-3090.27 3795.33,-3092.98 3796.53,-3096.93"/>
        <lane id=":J17_0_1" index="1" speed="30.17" length="14.69" shape="3793.96,-3082.45 3796.18,-3086.17 3797.40,-3088.89 3798.30,-3091.76 3799.57,-3095.94"/>
    </edge>
    <edge id=":J17_2" function="internal">
        <lane id=":J17_2_0" index="0" speed="33.52" length="14.80" shape="3793.96,-3082.45 3796.54,-3086.05 3798.60,-3088.28 3800.73,-3090.48 3803.49,-3093.95"/>
        <lane id=":J17_2_1" index="1" speed="33.52" length="14.80" shape="3796.65,-3080.72 3799.20,-3084.28 3801.25,-3086.49 3803.36,-3088.66 3806.09,-3092.09"/>
        <lane id=":J17_2_2" index="2" speed="33.52" length="14.80" shape="3799.35,-3079.00 3801.87,-3082.51 3803.90,-3084.69 3805.99,-3086.83 3808.69,-3090.22"/>
    </edge>
    <edge id=":J18_0" function="internal">
        <lane id=":J18_0_0" index="0" speed="30.17" length="19.71" shape="143.87,-3018.69 143.35,-3024.47 142.37,-3028.34 140.91,-3032.13 138.93,-3037.64"/>
        <lane id=":J18_0_1" index="1" speed="30.17" length="20.58" shape="147.06,-3018.83 146.52,-3024.89 145.51,-3028.99 144.01,-3032.96 141.98,-3038.63"/>
    </edge>
    <edge id=":J18_2" function="internal">
        <lane id=":J18_2_0" index="0" speed="33.52" length="20.58" shape="147.06,-3018.83 146.15,-3039.38"/>
        <lane id=":J18_2_1" index="1" speed="33.52" length="20.58" shape="150.26,-3018.96 149.35,-3039.52"/>
        <lane id=":J18_2_2" index="2" speed="33.52" length="20.58" shape="153.46,-3019.09 152.55,-3039.65"/>
    </edge>
    <edge id=":J19_0" function="internal">
        <lane id=":J19_0_0" index="0" speed="30.17" length="17.66" shape="51.01,-411.68 46.19,-413.39 42.88,-414.62 39.48,-415.37 34.44,-415.62"/>
        <lane id=":J19_0_1" index="1" speed="30.17" length="17.66" shape="51.98,-414.73 46.89,-416.53 43.37,-417.81 39.77,-418.57 34.44,-418.82"/>
    </edge>
    <edge id=":J19_2" function="internal">
        <lane id=":J19_2_0" index="0" speed="33.52" length="18.18" shape="52.64,-419.11 34.44,-418.82"/>
        <lane id=":J19_2_1" index="1" speed="33.52" length="18.18" shape="52.61,-422.31 34.44,-422.02"/>
        <lane id=":J19_2_2" index="2" speed="33.52" length="18.18" shape="52.58,-425.51 34.43,-425.22"/>
    </edge>
    <edge id=":J2_0" function="internal">
        <lane id=":J2_0_0" index="0" speed="30.17" length="23.05" shape="2525.74,-424.37 2518.73,-424.07 2513.78,-423.25 2509.14,-422.05 2503.08,-420.63"/>
        <lane id=":J2_0_1" index="1" speed="30.17" length="23.69" shape="2525.74,-427.57 2518.50,-427.26 2513.35,-426.42 2508.56,-425.20 2502.45,-423.77"/>
    </edge>
    <edge id=":J2_2" function="internal">
        <lane id=":J2_2_0" index="0" speed="33.52" length="23.68" shape="2525.74,-427.57 2502.06,-427.75"/>
        <lane id=":J2_2_1" index="1" speed="33.52" length="23.68" shape="2525.75,-430.77 2502.07,-430.95"/>
        <lane id=":J2_2_2" index="2" speed="33.52" length="23.68" shape="2525.76,-433.97 2502.09,-434.15"/>
    </edge>
    <edge id=":J20_0" function="internal">
        <lane id=":J20_0_0" index="0" speed="30.17" length="19.27" shape="525.45,2627.27 524.62,2621.67 523.41,2617.96 521.68,2614.38 519.30,2609.17"/>
        <lane id=":J20_0_1" index="1" speed="30.17" length="20.22" shape="528.64,2626.97 527.78,2621.08 526.52,2617.18 524.73,2613.41 522.26,2607.94"/>
    </edge>
    <edge id=":J20_2" function="internal">
        <lane id=":J20_2_0" index="0" speed="33.52" length="20.23" shape="528.64,2626.97 526.45,2606.88"/>
        <lane id=":J20_2_1" index="1" speed="33.52" length="20.23" shape="531.82,2626.66 529.63,2606.55"/>
        <lane id=":J20_2_2" index="2" speed="33.52" length="20.23" shape="535.01,2626.36 532.81,2606.23"/>
    </edge>
    <edge id=":J21_0" function="internal">
        <lane id=":J21_0_0" index="0" speed="27.97" length="20.06" shape="3861.34,-3094.75 3856.45,-3091.67 3852.97,-3089.60 3850.00,-3087.04 3846.65,-3082.47"/>
        <lane id=":J21_0_1" index="1" speed="28.87" length="20.06" shape="3859.52,-3097.38 3854.39,-3094.12 3850.70,-3091.87 3847.52,-3089.08 3843.94,-3084.18"/>
    </edge>
    <edge id=":J21_2" function="internal">
        <lane id=":J21_2_0" index="0" speed="33.52" length="20.75" shape="3856.34,-3100.59 3843.94,-3084.18"/>
        <lane id=":J21_2_1" index="1" speed="33.52" length="20.75" shape="3853.73,-3102.45 3841.24,-3085.89"/>
        <lane id=":J21_2_2" index="2" speed="33.52" length="20.75" shape="3851.13,-3104.31 3838.53,-3087.60"/>
    </edge>
    <edge id=":J22_0" function="internal">
        <lane id=":J22_0_0" index="0" speed="30.17" length="18.70" shape="550.14,-420.59 544.65,-420.26 540.96,-419.42 537.34,-418.08 532.09,-416.25"/>
        <lane id=":J22_0_1" index="1" speed="30.17" length="19.64" shape="550.11,-423.79 544.34,-423.46 540.46,-422.60 536.66,-421.22 531.14,-419.30"/>
    </edge>
    <edge id=":J22_2" function="internal">
        <lane id=":J22_2_0" index="0" speed="33.52" length="19.65" shape="550.11,-423.79 530.47,-423.58"/>
        <lane id=":J22_2_1" index="1" speed="33.52" length="19.65" shape="550.08,-426.99 530.44,-426.78"/>
        <lane id=":J22_2_2" index="2" speed="33.52" length="19.65" shape="550.06,-430.19 530.41,-429.98"/>
    </edge>
    <edge id=":J23_0" function="internal">
        <lane id=":J23_0_0" index="0" speed="30.17" length="30.06" shape="1621.15,-424.89 1614.49,-426.30 1608.33,-427.74 1601.24,-428.84 1591.78,-429.22"/>
        <lane id=":J23_0_1" index="1" speed="30.17" length="30.06" shape="1621.69,-428.04 1614.98,-429.47 1608.70,-430.92 1601.43,-432.03 1591.75,-432.42"/>
    </edge>
    <edge id=":J23_2" function="internal">
        <lane id=":J23_2_0" index="0" speed="33.52" length="30.33" shape="1622.03,-431.88 1591.75,-432.42"/>
        <lane id=":J23_2_1" index="1" speed="33.52" length="30.33" shape="1622.05,-435.08 1591.72,-435.62"/>
        <lane id=":J23_2_2" index="2" speed="33.52" length="30.33" shape="1622.06,-438.28 1591.70,-438.82"/>
    </edge>
    <edge id=":J24_0" function="internal">
        <lane id=":J24_0_0" index="0" speed="28.33" length="22.11" shape="302.24,-222.99 300.02,-217.24 298.24,-213.09 297.23,-208.74 297.32,-202.42"/>
        <lane id=":J24_0_1" index="1" speed="29.17" length="22.11" shape="299.20,-223.98 296.95,-218.13 295.11,-213.68 294.05,-208.91 294.13,-202.12"/>
    </edge>
    <edge id=":J24_2" function="internal">
        <lane id=":J24_2_0" index="0" speed="33.52" length="22.83" shape="294.81,-224.67 294.13,-202.12"/>