<?xml version="1.0" encoding="UTF-8"?>

<!-- generated on 2024-05-24 14:45:43 by Eclipse SUMO netedit Version 1.19.0
-->

<additional xmlns:xsi="http://www.w3.org/2001/XMLSchema-instance" xsi:noNamespaceSchemaLocation="http://sumo.dlr.de/xsd/additional_file.xsd">
    <!-- Detectors -->
    <inductionLoop id="H10E_1_0" lane="E71_0" pos="468.88" period="300.00" file="Loop_Data/H10E_1_0.xml"/>
    <inductionLoop id="H10E_1_1" lane="E71_1" pos="468.88" period="300.00" file="Loop_Data/H10E_1_1.xml"/>
    <inductionLoop id="H10E_1_2" lane="E71_2" pos="468.88" period="300.00" file="Loop_Data/H10E_1_2.xml"/>
    <inductionLoop id="H10E_1_3" lane="E71_3" pos="468.88" period="300.00" file="Loop_Data/H10E_1_3.xml"/>
    <inductionLoop id="H10E_2_0" lane="E71.1189_0" pos="629.25" period="300.00" file="Loop_Data/H10E_2_0.xml"/>
    <inductionLoop id="H10E_2_1" lane="E71.1189_1" pos="629.25" period="300.00" file="Loop_Data/H10E_2_1.xml"/>
    <inductionLoop id="H10E_2_2" lane="E71.1189_2" pos="629.25" period="300.00" file="Loop_Data/H10E_2_2.xml"/>
    <inductionLoop id="H10E_2_3" lane="E71.1189_3" pos="629.25" period="300.00" file="Loop_Data/H10E_2_3.xml"/>
    <inductionLoop id="H10E_3_0" lane="E71.1189.1656_0" pos="212.34" period="300.00" file="Loop_Data/H10E_3_0.xml"/>
    <inductionLoop id="H10E_3_1" lane="E71.1189.1656_1" pos="212.34" period="300.00" file="Loop_Data/H10E_3_1.xml"/>
    <inductionLoop id="H10E_3_2" lane="E71.1189.1656_2" pos="212.34" period="300.00" file="Loop_Data/H10E_3_2.xml"/>
    <inductionLoop id="H10E_3_3" lane="E71.1189.1656_3" pos="212.34" period="300.00" file="Loop_Data/H10E_3_3.xml"/>
    <inductionLoop id="H10E_in_0" lane="E69_0" pos="116.29" period="300.00" file="Loop_Data/H10E_in_0.xml"/>
    <inductionLoop id="H10E_in_1" lane="E69_1" pos="116.29" period="300.00" file="Loop_Data/H10E_in_1.xml"/>
    <inductionLoop id="H10E_in_2" lane="E69_2" pos="116.29" period="300.00" file="Loop_Data/H10E_in_2.xml"/>
    <inductionLoop id="H10E_in_3" lane="E69_3" pos="116.29" period="300.00" file="Loop_Data/H10E_in_3.xml"/>
    <inductionLoop id="H10E_offRamp1" lane="E59_0" pos="191.41" period="300.00" file="Loop_Data/H10E_offRamp1.xml"/>
    <inductionLoop id="H10E_offRamp2" lane="E118_0" pos="199.20" period="300.00" file="Loop_Data/H10E_offRamp2.xml"/>
    <inductionLoop id="H10E_onRamp1" lane="E54_0" pos="83.35" period="300.00" file="Loop_Data/H10E_onRamp1.xml"/>
    <inductionLoop id="H10E_onRamp2" lane="E117_0" pos="106.07" period="300.00" file="Loop_Data/H10E_onRamp2.xml"/>
    <inductionLoop id="H10E_out_0" lane="E102_0" pos="519.12" period="300.00" file="Loop_Data/H10E_out_0.xml"/>
    <inductionLoop id="H10E_out_1" lane="E102_1" pos="519.12" period="300.00" file="Loop_Data/H10E_out_1.xml"/>
    <inductionLoop id="H10E_out_2" lane="E102_2" pos="519.12" period="300.00" file="Loop_Data/H10E_out_2.xml"/>
    <inductionLoop id="H10E_out_3" lane="E102_3" pos="519.12" period="300.00" file="Loop_Data/H10E_out_3.xml"/>
    <inductionLoop id="H10W_1_0" lane="E66_0" pos="235.02" period="300.00" file="Loop_Data/H10W_1_0.xml"/>
    <inductionLoop id="H10W_1_1" lane="E66_1" pos="235.02" period="300.00" file="Loop_Data/H10W_1_1.xml"/>
    <inductionLoop id="H10W_1_2" lane="E66_2" pos="235.02" period="300.00" file="Loop_Data/H10W_1_2.xml"/>
    <inductionLoop id="H10W_1_3" lane="E66_3" pos="235.02" period="300.00" file="Loop_Data/H10W_1_3.xml"/>
    <inductionLoop id="H10W_2_0" lane="E66.835_0" pos="605.70" period="300.00" file="Loop_Data/H10W_2_0.xml"/>
    <inductionLoop id="H10W_2_1" lane="E66.835_1" pos="605.70" period="300.00" file="Loop_Data/H10W_2_1.xml"/>
    <inductionLoop id="H10W_2_2" lane="E66.835_2" pos="605.70" period="300.00" file="Loop_Data/H10W_2_2.xml"/>
    <inductionLoop id="H10W_2_3" lane="E66.835_3" pos="605.70" period="300.00" file="Loop_Data/H10W_2_3.xml"/>
    <inductionLoop id="H10W_3_0" lane="E66.2420_0" pos="237.23" period="300.00" file="Loop_Data/H10W_3_0.xml"/>
    <inductionLoop id="H10W_3_1" lane="E66.2420_1" pos="237.23" period="300.00" file="Loop_Data/H10W_3_1.xml"/>
    <inductionLoop id="H10W_3_2" lane="E66.2420_2" pos="237.23" period="300.00" file="Loop_Data/H10W_3_2.xml"/>
    <inductionLoop id="H10W_3_3" lane="E66.2420_3" pos="237.23" period="300.00" file="Loop_Data/H10W_3_3.xml"/>
    <inductionLoop id="H10W_in_0" lane="E101_0" pos="59.00" period="300.00" file="Loop_Data/H10W_in_0.xml"/>
    <inductionLoop id="H10W_in_1" lane="E101_1" pos="59.00" period="300.00" file="Loop_Data/H10W_in_1.xml"/>
    <inductionLoop id="H10W_in_2" lane="E101_2" pos="59.00" period="300.00" file="Loop_Data/H10W_in_2.xml"/>
    <inductionLoop id="H10W_in_3" lane="E101_3" pos="59.00" period="300.00" file="Loop_Data/H10W_in_3.xml"/>
    <inductionLoop id="H10W_offRamp1" lane="E132_0" pos="153.21" period="300.00" file="Loop_Data/H10W_offRamp1.xml"/>
    <inductionLoop id="H10W_offRamp2" lane="E130_0" pos="152.60" period="300.00" file="Loop_Data/H10W_offRamp2.xml"/>
    <inductionLoop id="H10W_onRamp1" lane="E131_0" pos="50.61" period="300.00" file="Loop_Data/H10W_onRamp1.xml"/>
    <inductionLoop id="H10W_onRamp2" lane="E129_0" pos="64.00" period="300.00" file="Loop_Data/H10W_onRamp2.xml"/>
    <inductionLoop id="H10W_out_0" lane="E64_0" pos="1013.40" period="300.00" file="Loop_Data/H10W_out_0.xml"/>
    <inductionLoop id="H10W_out_1" lane="E64_1" pos="1013.40" period="300.00" file="Loop_Data/H10W_out_1.xml"/>
    <inductionLoop id="H10W_out_2" lane="E64_2" pos="1013.40" period="300.00" file="Loop_Data/H10W_out_2.xml"/>
    <inductionLoop id="H10W_out_3" lane="E64_3" pos="1013.40" period="300.00" file="Loop_Data/H10W_out_3.xml"/>
    <inductionLoop id="H15N_1_0" lane="E11_0" pos="182.27" period="300.00" file="Loop_Data/H15N_1_0.xml"/>
    <inductionLoop id="H15N_1_1" lane="E11_1" pos="182.27" period="300.00" file="Loop_Data/H15N_1_1.xml"/>
    <inductionLoop id="H15N_1_2" lane="E11_2" pos="182.27" period="300.00" file="Loop_Data/H15N_1_2.xml"/>
    <inductionLoop id="H15N_1_3" lane="E11_3" pos="182.27" period="300.00" file="Loop_Data/H15N_1_3.xml"/>
    <inductionLoop id="H15N_2_0" lane="E11.459_0" pos="410.89" period="300.00" file="Loop_Data/H15N_2_0.xml"/>
    <inductionLoop id="H15N_2_1" lane="E11.459_1" pos="410.89" period="300.00" file="Loop_Data/H15N_2_1.xml"/>
    <inductionLoop id="H15N_2_2" lane="E11.459_2" pos="410.89" period="300.00" file="Loop_Data/H15N_2_2.xml"/>
    <inductionLoop id="H15N_2_3" lane="E11.459_3" pos="410.89" period="300.00" file="Loop_Data/H15N_2_3.xml"/>
    <inductionLoop id="H15N_3_0" lane="E10_0" pos="239.70" period="300.00" file="Loop_Data/H15N_3_0.xml"/>
    <inductionLoop id="H15N_3_1" lane="E10_1" pos="239.70" period="300.00" file="Loop_Data/H15N_3_1.xml"/>
    <inductionLoop id="H15N_3_2" lane="E10_2" pos="239.70" period="300.00" file="Loop_Data/H15N_3_2.xml"/>
    <inductionLoop id="H15N_3_3" lane="E10_3" pos="239.70" period="300.00" file="Loop_Data/H15N_3_3.xml"/>
    <inductionLoop id="H15N_4_0" lane="E10.876_0" pos="490.47" period="300.00" file="Loop_Data/H15N_4_0.xml"/>
    <inductionLoop id="H15N_4_1" lane="E10.876_1" pos="490.47" period="300.00" file="Loop_Data/H15N_4_1.xml"/>
    <inductionLoop id="H15N_4_2" lane="E10.876_2" pos="490.47" period="300.00" file="Loop_Data/H15N_4_2.xml"/>
    <inductionLoop id="H15N_4_3" lane="E10.876_3" pos="490.47" period="300.00" file="Loop_Data/H15N_4_3.xml"/>
    <inductionLoop id="H15N_in_0" lane="E89_0" pos="43.40" period="300.00" file="Loop_Data/H15N_in_0.xml"/>
    <inductionLoop id="H15N_in_1" lane="E89_1" pos="43.40" period="300.00" file="Loop_Data/H15N_in_1.xml"/>
    <inductionLoop id="H15N_in_2" lane="E89_2" pos="43.40" period="300.00" file="Loop_Data/H15N_in_2.xml"/>
    <inductionLoop id="H15N_in_3" lane="E89_3" pos="43.40" period="300.00" file="Loop_Data/H15N_in_3.xml"/>
    <inductionLoop id="H15N_offRamp1" lane="E58_0" pos="131.81" period="300.00" file="Loop_Data/H15N_offRamp1.xml"/>
    <inductionLoop id="H15N_offRamp2" lane="E136_0" pos="117.63" period="300.00" file="Loop_Data/H15N_offRamp2.xml"/>
    <inductionLoop id="H15N_onRamp1" lane="E55_0" pos="62.49" period="300.00" file="Loop_Data/H15N_onRamp1.xml"/>
    <inductionLoop id="H15N_onRamp2" lane="E135_0" pos="58.06" period="300.00" file="Loop_Data/H15N_onRamp2.xml"/>
    <inductionLoop id="H15N_out_0" lane="E115_0" pos="579.30" period="300.00" file="Loop_Data/H15N_out_0.xml"/>
    <inductionLoop id="H15N_out_1" lane="E115_1" pos="579.30" period="300.00" file="Loop_Data/H15N_out_1.xml"/>
    <inductionLoop id="H15N_out_2" lane="E115_2" pos="579.30" period="300.00" file="Loop_Data/H15N_out_2.xml"/>
    <inductionLoop id="H15N_out_3" lane="E115_3" pos="579.30" period="300.00" file="Loop_Data/H15N_out_3.xml"/>
    <inductionLoop id="H15S_1_0" lane="E3_0" pos="939.75" period="300.00" file="Loop_Data/H15S_1_0.xml"/>
    <inductionLoop id="H15S_1_1" lane="E3_1" pos="939.75" period="300.00" file="Loop_Data/H15S_1_1.xml"/>
    <inductionLoop id="H15S_1_2" lane="E3_2" pos="939.75" period="300.00" file="Loop_Data/H15S_1_2.xml"/>
    <inductionLoop id="H15S_1_3" lane="E3_3" pos="939.75" period="300.00" file="Loop_Data/H15S_1_3.xml"/>
    <inductionLoop id="H15S_2_0" lane="E3.1703_0" pos="411.49" period="300.00" file="Loop_Data/H15S_2_0.xml"/>
    <inductionLoop id="H15S_2_1" lane="E3.1703_1" pos="411.49" period="300.00" file="Loop_Data/H15S_2_1.xml"/>
    <inductionLoop id="H15S_2_2" lane="E3.1703_2" pos="411.49" period="300.00" file="Loop_Data/H15S_2_2.xml"/>
    <inductionLoop id="H15S_2_3" lane="E3.1703_3" pos="411.49" period="300.00" file="Loop_Data/H15S_2_3.xml"/>
    <inductionLoop id="H15S_3_0" lane="E6_0" pos="574.51" period="300.00" file="Loop_Data/H15S_3_0.xml"/>
    <inductionLoop id="H15S_3_1" lane="E6_1" pos="574.51" period="300.00" file="Loop_Data/H15S_3_1.xml"/>
    <inductionLoop id="H15S_3_2" lane="E6_2" pos="574.51" period="300.00" file="Loop_Data/H15S_3_2.xml"/>
    <inductionLoop id="H15S_3_3" lane="E6_3" pos="574.51" period="300.00" file="Loop_Data/H15S_3_3.xml"/>
    <inductionLoop id="H15S_4_0" lane="E6.1344_0" pos="490.00" period="300.00" file="Loop_Data/H15S_4_0.xml"/>
    <inductionLoop id="H15S_4_1" lane="E6.1344_1" pos="490.00" period="300.00" file="Loop_Data/H15S_4_1.xml"/>
    <inductionLoop id="H15S_4_2" lane="E6.1344_2" pos="490.00" period="300.00" file="Loop_Data/H15S_4_2.xml"/>
    <inductionLoop id="H15S_4_3" lane="E6.1344_3" pos="490.00" period="300.00" file="Loop_Data/H15S_4_3.xml"/>
    <inductionLoop id="H15S_in_0" lane="E116_0" pos="57.21" period="300.00" file="Loop_Data/H15S_in_0.xml"/>
    <inductionLoop id="H15S_in_1" lane="E116_1" pos="57.21" period="300.00" file="Loop_Data/H15S_in_1.xml"/>
    <inductionLoop id="H15S_in_2" lane="E116_2" pos="57.21" period="300.00" file="Loop_Data/H15S_in_2.xml"/>
    <inductionLoop id="H15S_in_3" lane="E116_3" pos="57.21" period="300.00" file="Loop_Data/H15S_in_3.xml"/>
    <inductionLoop id="H15S_offRamp1" lane="E138_0" pos="169.04" period="300.00" file="Loop_Data/H15S_offRamp1.xml"/>
    <inductionLoop id="H15S_offRamp2" lane="E124_0" pos="121.19" period="300.00" file="Loop_Data/H15S_offRamp2.xml"/>
    <inductionLoop id="H15S_onRamp1" lane="E137_0" pos="38.89" period="300.00" file="Loop_Data/H15S_onRamp1.xml"/>
    <inductionLoop id="H15S_onRamp2" lane="E123_0" pos="43.86" period="300.00" file="Loop_Data/H15S_onRamp2.xml"/>
    <inductionLoop id="H15S_out_0" lane="E88_0" pos="780.87" period="300.00" file="Loop_Data/H15S_out_0.xml"/>
    <inductionLoop id="H15S_out_1" lane="E88_1" pos="780.87" period="300.00" file="Loop_Data/H15S_out_1.xml"/>
    <inductionLoop id="H15S_out_2" lane="E88_2" pos="780.87" period="300.00" file="Loop_Data/H15S_out_2.xml"/>
    <inductionLoop id="H15S_out_3" lane="E88_3" pos="780.87" period="300.00" file="Loop_Data/H15S_out_3.xml"/>
    <inductionLoop id="H20E_1_0" lane="E2_0" pos="147.07" period="300.00" file="Loop_Data/H20E_1_0.xml"/>
    <inductionLoop id="H20E_1_1" lane="E2_1" pos="147.07" period="300.00" file="Loop_Data/H20E_1_1.xml"/>
    <inductionLoop id="H20E_1_2" lane="E2_2" pos="147.07" period="300.00" file="Loop_Data/H20E_1_2.xml"/>
    <inductionLoop id="H20E_1_3" lane="E2_3" pos="147.07" period="300.00" file="Loop_Data/H20E_1_3.xml"/>
    <inductionLoop id="H20E_2_0" lane="E2.599_0" pos="225.60" period="300.00" file="Loop_Data/H20E_2_0.xml"/>
    <inductionLoop id="H20E_2_1" lane="E2.599_1" pos="225.60" period="300.00" file="Loop_Data/H20E_2_1.xml"/>
    <inductionLoop id="H20E_2_2" lane="E2.599_2" pos="225.60" period="300.00" file="Loop_Data/H20E_2_2.xml"/>
    <inductionLoop id="H20E_2_3" lane="E2.599_3" pos="225.60" period="300.00" file="Loop_Data/H20E_2_3.xml"/>
    <inductionLoop id="H20E_in_0" lane="E0_0" pos="190.49" period="300.00" file="Loop_Data/H20E_in_0.xml"/>
    <inductionLoop id="H20E_in_1" lane="E0_1" pos="190.49" period="300.00" file="Loop_Data/H20E_in_1.xml"/>
    <inductionLoop id="H20E_in_2" lane="E0_2" pos="190.49" period="300.00" file="Loop_Data/H20E_in_2.xml"/>
    <inductionLoop id="H20E_in_3" lane="E0_3" pos="190.49" period="300.00" file="Loop_Data/H20E_in_3.xml"/>
    <inductionLoop id="H20E_offRamp1" lane="E126_0" pos="108.89" period="300.00" file="Loop_Data/H20E_offRamp1.xml"/>
    <inductionLoop id="H20E_onRamp1" lane="E125_0" pos="58.47" period="300.00" file="Loop_Data/H20E_onRamp1.xml"/>
    <inductionLoop id="H20E_out_0" lane="E21_0" pos="816.05" period="300.00" file="Loop_Data/H20E_out_0.xml"/>
    <inductionLoop id="H20E_out_1" lane="E21_1" pos="816.05" period="300.00" file="Loop_Data/H20E_out_1.xml"/>
    <inductionLoop id="H20E_out_2" lane="E21_2" pos="816.05" period="300.00" file="Loop_Data/H20E_out_2.xml"/>
    <inductionLoop id="H20E_out_3" lane="E21_3" pos="816.05" period="300.00" file="Loop_Data/H20E_out_3.xml"/>
    <inductionLoop id="H20W_1_0" lane="E8_0" pos="135.81" period="300.00" file="Loop_Data/H20W_1_0.xml"/>
    <inductionLoop id="H20W_1_1" lane="E8_1" pos="135.81" period="300.00" file="Loop_Data/H20W_1_1.xml"/>
    <inductionLoop id="H20W_1_2" lane="E8_2" pos="135.81" period="300.00" file="Loop_Data/H20W_1_2.xml"/>
    <inductionLoop id="H20W_1_3" lane="E8_3" pos="135.81" period="300.00" file="Loop_Data/H20W_1_3.xml"/>
    <inductionLoop id="H20W_2_0" lane="E8.532_0" pos="175.39" period="300.00" file="Loop_Data/H20W_2_0.xml"/>
    <inductionLoop id="H20W_2_1" lane="E8.532_1" pos="175.39" period="300.00" file="Loop_Data/H20W_2_1.xml"/>
    <inductionLoop id="H20W_2_2" lane="E8.532_2" pos="175.39" period="300.00" file="Loop_Data/H20W_2_2.xml"/>
    <inductionLoop id="H20W_2_3" lane="E8.532_3" pos="175.39" period="300.00" file="Loop_Data/H20W_2_3.xml"/>
    <inductionLoop id="H20W_in_0" lane="E15_0" pos="127.34" period="300.00" file="Loop_Data/H20W_in_0.xml"/>
    <inductionLoop id="H20W_in_1" lane="E15_1" pos="127.34" period="300.00" file="Loop_Data/H20W_in_1.xml"/>
    <inductionLoop id="H20W_in_2" lane="E15_2" pos="127.34" period="300.00" file="Loop_Data/H20W_in_2.xml"/>
    <inductionLoop id="H20W_in_3" lane="E15_3" pos="127.34" period="300.00" file="Loop_Data/H20W_in_3.xml"/>
    <inductionLoop id="H20W_offRamp1" lane="E128_0" pos="98.25" period="300.00" file="Loop_Data/H20W_offRamp1.xml"/>
    <inductionLoop id="H20W_onRamp1" lane="E127_0" pos="48.01" period="300.00" file="Loop_Data/H20W_onRamp1.xml"/>
    <inductionLoop id="H20W_out_0" lane="E7_0" pos="946.73" period="300.00" file="Loop_Data/H20W_out_0.xml"/>
    <inductionLoop id="H20W_out_1" lane="E7_1" pos="946.73" period="300.00" file="Loop_Data/H20W_out_1.xml"/>
    <inductionLoop id="H20W_out_2" lane="E7_2" pos="946.73" period="300.00" file="Loop_Data/H20W_out_2.xml"/>
    <inductionLoop id="H20W_out_3" lane="E7_3" pos="946.73" period="300.00" file="Loop_Data/H20W_out_3.xml"/>
    <inductionLoop id="H25N_1_0" lane="E37_0" pos="541.60" period="300.00" file="Loop_Data/H25N_1_0.xml"/>
    <inductionLoop id="H25N_1_1" lane="E37_1" pos="541.60" period="300.00" file="Loop_Data/H25N_1_1.xml"/>
    <inductionLoop id="H25N_1_2" lane="E37_2" pos="541.60" period="300.00" file="Loop_Data/H25N_1_2.xml"/>
    <inductionLoop id="H25N_1_3" lane="E37_3" pos="541.60" period="300.00" file="Loop_Data/H25N_1_3.xml"/>
    <inductionLoop id="H25N_2 0" lane="E37.1085_0" pos="1143.81" period="300.00" file="Loop_Data/H25N_2_0.xml"/>
    <inductionLoop id="H25N_2_1" lane="E37.1085_1" pos="1143.81" period="300.00" file="Loop_Data/H25N_2_1.xml"/>
    <inductionLoop id="H25N_2_2" lane="E37.1085_2" pos="1143.81" period="300.00" file="Loop_Data/H25N_2_2.xml"/>
    <inductionLoop id="H25N_2_3" lane="E37.1085_3" pos="1143.81" period="300.00" file="Loop_Data/H25N_2_3.xml"/>
    <inductionLoop id="H25N_3_0" lane="E35_0" pos="398.52" period="300.00" file="Loop_Data/H25N_3_0.xml"/>
    <inductionLoop id="H25N_3_1" lane="E35_1" pos="398.52" period="300.00" file="Loop_Data/H25N_3_1.xml"/>
    <inductionLoop id="H25N_3_2" lane="E35_2" pos="398.52" period="300.00" file="Loop_Data/H25N_3_2.xml"/>
    <inductionLoop id="H25N_3_3" lane="E35_3" pos="398.52" period="300.00" file="Loop_Data/H25N_3_3.xml"/>
    <inductionLoop id="H25N_4_0" lane="E35.1093_0" pos="630.16" period="300.00" file="Loop_Data/H25N_4_0.xml"/>
    <inductionLoop id="H25N_4_1" lane="E35.1093_1" pos="630.16" period="300.00" file="Loop_Data/H25N_4_1.xml"/>
    <inductionLoop id="H25N_4_2" lane="E35.1093_2" pos="630.16" period="300.00" file="Loop_Data/H25N_4_2.xml"/>
    <inductionLoop id="H25N_4_3" lane="E35.1093_3" pos="630.16" period="300.00" file="Loop_Data/H25N_4_3.xml"/>
    <inductionLoop id="H25N_in_0" lane="E96_0" pos="41.73" period="300.00" file="Loop_Data/H25N_in_0.xml"/>
    <inductionLoop id="H25N_in_1" lane="E96_1" pos="41.73" period="300.00" file="Loop_Data/H25N_in_1.xml"/>
    <inductionLoop id="H25N_in_2" lane="E96_2" pos="41.73" period="300.00" file="Loop_Data/H25N_in_2.xml"/>
    <inductionLoop id="H25N_in_3" lane="E96_3" pos="41.73" period="300.00" file="Loop_Data/H25N_in_3.xml"/>
    <inductionLoop id="H25N_offRamp1" lane="E61_0" pos="211.20" period="300.00" file="Loop_Data/H25N_offRamp1.xml"/>
    <inductionLoop id="H25N_offRamp2" lane="E120_0" pos="215.65" period="300.00" file="Loop_Data/H25N_offRamp2.xml"/>
    <inductionLoop id="H25N_onRamp1" lane="E60_0" pos="84.52" period="300.00" file="Loop_Data/H25N_onRamp1.xml"/>
    <inductionLoop id="H25N_onRamp2" lane="E119_0" pos="83.23" period="300.00" file="Loop_Data/H25N_onRamp2.xml"/>
    <inductionLoop id="H25N_out_0" lane="E63_0" pos="1154.67" period="300.00" file="Loop_Data/H25N_out_0.xml"/>
    <inductionLoop id="H25N_out_1" lane="E63_1" pos="1154.67" period="300.00" file="Loop_Data/H25N_out_1.xml"/>
    <inductionLoop id="H25N_out_2" lane="E63_2" pos="1154.67" period="300.00" file="Loop_Data/H25N_out_2.xml"/>
    <inductionLoop id="H25S_1_0" lane="E34_0" pos="532.97" period="300.00" file="Loop_Data/H25S_1_0.xml"/>
    <inductionLoop id="H25S_1_1" lane="E34_1" pos="532.97" period="300.00" file="Loop_Data/H25S_1_1.xml"/>
    <inductionLoop id="H25S_1_2" lane="E34_2" pos="532.97" period="300.00" file="Loop_Data/H25S_1_2.xml"/>
    <inductionLoop id="H25S_1_3" lane="E34_3" pos="532.97" period="300.00" file="Loop_Data/H25S_1_3.xml"/>
    <inductionLoop id="H25S_2_0" lane="E34.1452_0" pos="404.25" period="300.00" file="Loop_Data/H25S_2_0.xml"/>
    <inductionLoop id="H25S_2_1" lane="E34.1452_1" pos="404.25" period="300.00" file="Loop_Data/H25S_2_1.xml"/>
    <inductionLoop id="H25S_2_2" lane="E34.1452_2" pos="404.25" period="300.00" file="Loop_Data/H25S_2_2.xml"/>
    <inductionLoop id="H25S_2_3" lane="E34.1452_3" pos="404.25" period="300.00" file="Loop_Data/H25S_2_3.xml"/>
    <inductionLoop id="H25S_3_0" lane="E36_0" pos="212.89" period="300.00" file="Loop_Data/H25S_3_0.xml"/>
    <inductionLoop id="H25S_3_1" lane="E36_1" pos="212.89" period="300.00" file="Loop_Data/H25S_3_1.xml"/>
    <inductionLoop id="H25S_3_2" lane="E36_2" pos="212.89" period="300.00" file="Loop_Data/H25S_3_2.xml"/>
    <inductionLoop id="H25S_3_3" lane="E36_3" pos="212.89" period="300.00" file="Loop_Data/H25S_3_3.xml"/>
    <inductionLoop id="H25S_4_0" lane="E36.687_0" pos="1063.87" period="300.00" file="Loop_Data/H25S_4_0.xml"/>
    <inductionLoop id="H25S_4_1" lane="E36.687_1" pos="1063.87" period="300.00" file="Loop_Data/H25S_4_1.xml"/>
    <inductionLoop id="H25S_4_2" lane="E36.687_2" pos="1063.87" period="300.00" file="Loop_Data/H25S_4_2.xml"/>
    <inductionLoop id="H25S_4_3" lane="E36.687_3" pos="1063.87" period="300.00" file="Loop_Data/H25S_4_3.xml"/>
    <inductionLoop id="H25S_in_0" lane="E62_0" pos="158.98" period="300.00" file="Loop_Data/H25S_in_0.xml"/>
    <inductionLoop id="H25S_in_1" lane="E62_1" pos="159.98" period="300.00" file="Loop_Data/H25S_in_1.xml"/>
    <inductionLoop id="H25S_in_2" lane="E62_2" pos="159.98" period="300.00" file="Loop_Data/H25S_in_2.xml"/>
    <inductionLoop id="H25S_offRamp1" lane="E133_0" pos="167.35" period="300.00" file="Loop_Data/H25S_offRamp1.xml"/>
    <inductionLoop id="H25S_offRamp2" lane="E122_0" pos="192.10" period="300.00" file="Loop_Data/H25S_offRamp2.xml"/>
    <inductionLoop id="H25S_onRamp1" lane="E134_0" pos="60.42" period="300.00" file="Loop_Data/H25S_onRamp1.xml"/>
    <inductionLoop id="H25S_onRamp2" lane="E121_0" pos="43.64" period="300.00" file="Loop_Data/H25S_onRamp2.xml"/>
    <inductionLoop id="H25S_out_0" lane="E95_0" pos="890.90" period="300.00" file="Loop_Data/H25S_out_0.xml"/>
    <inductionLoop id="H25S_out_1" lane="E95_1" pos="890.90" period="300.00" file="Loop_Data/H25S_out_1.xml"/>
    <inductionLoop id="H25S_out_2" lane="E95_2" pos="890.90" period="300.00" file="Loop_Data/H25S_out_2.xml"/>
    <inductionLoop id="H25S_out_3" lane="E95_3" pos="890.90" period="300.00" file="Loop_Data/H25S_out_3.xml"/>
</additional>
