<?xml version="1.0" encoding="UTF-8"?>

<!-- generated on 2024-07-04 18:26:46 by Eclipse SUMO netedit Version 1.20.0
<configuration xmlns:xsi="http://www.w3.org/2001/XMLSchema-instance" xsi:noNamespaceSchemaLocation="http://sumo.dlr.de/xsd/neteditConfiguration.xsd">

    <input>
        <sumo-net-file value="/Users/zihangwei/Documents/SUMO_TrafficNetwork/Network_Files/Traffic_Net.net.xml"/>
    </input>

    <output>
        <output-file value="/Users/zihangwei/Documents/SUMO_TrafficNetwork/Network_Files/Traffic_Net.net.xml"/>
    </output>

    <processing>
        <geometry.min-radius.fix.railways value="false"/>
        <geometry.max-grade.fix value="false"/>
        <offset.disable-normalization value="true"/>
        <lefthand value="0"/>
    </processing>

    <junctions>
        <no-turnarounds value="true"/>
        <junctions.corner-detail value="5"/>
        <junctions.limit-turn-speed value="5.50"/>
        <rectangular-lane-cut value="0"/>
    </junctions>

    <pedestrian>
        <walkingareas value="0"/>
    </pedestrian>

</configuration>
-->

<net version="1.20" junctionCornerDetail="5" limitTurnSpeed="5.50" xmlns:xsi="http://www.w3.org/2001/XMLSchema-instance" xsi:noNamespaceSchemaLocation="http://sumo.dlr.de/xsd/net_file.xsd">

    <location netOffset="0.00,0.00" convBoundary="-1328.00,-4534.47,5035.58,3188.51" origBoundary="-10000000000.00,-10000000000.00,10000000000.00,10000000000.00" projParameter="!"/>

    <edge id=":J0_0" function="internal">
        <lane id=":J0_0_0" index="0" speed="30.17" length="19.28" shape="451.71,1452.02 452.52,1457.63 453.70,1461.35 455.38,1464.95 457.68,1470.21"/>
        <lane id=":J0_0_1" index="1" speed="30.17" length="20.20" shape="448.52,1452.32 449.36,1458.20 450.58,1462.12 452.31,1465.90 454.71,1471.39"/>
    </edge>
    <edge id=":J0_2" function="internal">
        <lane id=":J0_2_0" index="0" speed="33.52" length="20.20" shape="448.52,1452.32 450.53,1472.41"/>
        <lane id=":J0_2_1" index="1" speed="33.52" length="20.20" shape="445.34,1452.62 447.35,1472.71"/>
        <lane id=":J0_2_2" index="2" speed="33.52" length="20.20" shape="442.15,1452.91 444.16,1473.02"/>
    </edge>
    <edge id=":J1_0" function="internal">
        <lane id=":J1_0_0" index="0" speed="30.17" length="18.29" shape="35.09,-462.16 40.45,-462.45 44.06,-463.28 47.58,-464.63 52.70,-466.48"/>
        <lane id=":J1_0_1" index="1" speed="30.17" length="19.28" shape="35.09,-458.96 40.75,-459.25 44.56,-460.10 48.28,-461.50 53.68,-463.44"/>
    </edge>
    <edge id=":J1_2" function="internal">
        <lane id=":J1_2_0" index="0" speed="33.52" length="19.30" shape="35.09,-458.96 54.38,-459.10"/>
        <lane id=":J1_2_1" index="1" speed="33.52" length="19.30" shape="35.10,-455.76 54.39,-455.90"/>
        <lane id=":J1_2_2" index="2" speed="33.52" length="19.30" shape="35.10,-452.56 54.41,-452.70"/>
    </edge>
    <edge id=":J10_0" function="internal">
        <lane id=":J10_0_0" index="0" speed="33.52" length="18.84" shape="437.77,1748.36 435.84,1729.63"/>
        <lane id=":J10_0_1" index="1" speed="33.52" length="18.84" shape="440.96,1748.04 439.02,1729.30"/>
        <lane id=":J10_0_2" index="2" speed="33.52" length="18.84" shape="444.14,1747.71 442.20,1728.97"/>
    </edge>
    <edge id=":J10_3" function="internal">
        <lane id=":J10_3_0" index="0" speed="30.17" length="18.32" shape="430.24,1747.45 431.53,1742.31 432.48,1738.76 432.92,1735.18 432.65,1729.95"/>
        <lane id=":J10_3_1" index="1" speed="30.17" length="18.32" shape="433.37,1748.12 434.71,1742.69 435.70,1738.94 436.13,1735.15 435.84,1729.63"/>
    </edge>
    <edge id=":J100_0" function="internal">
        <lane id=":J100_0_0" index="0" speed="31.29" length="6.62" shape="3172.94,-3412.77 3174.90,-3412.78 3176.26,-3412.77 3177.59,-3412.88 3179.52,-3413.25"/>
        <lane id=":J100_0_1" index="1" speed="31.29" length="7.66" shape="3173.01,-3409.57 3175.09,-3410.07 3176.30,-3411.14 3177.49,-3412.35 3179.52,-3413.25"/>
    </edge>
    <edge id=":J100_2" function="internal">
        <lane id=":J100_2_0" index="0" speed="33.52" length="3.17" shape="3173.01,-3409.57 3173.95,-3409.49 3174.58,-3409.27 3175.21,-3409.04 3176.15,-3408.95"/>
        <lane id=":J100_2_1" index="1" speed="33.52" length="3.17" shape="3173.09,-3406.38 3174.02,-3406.29 3174.64,-3406.07 3175.26,-3405.84 3176.19,-3405.75"/>
        <lane id=":J100_2_2" index="2" speed="33.52" length="3.17" shape="3173.16,-3403.18 3174.08,-3403.09 3174.70,-3402.87 3175.31,-3402.64 3176.23,-3402.55"/>
        <lane id=":J100_2_3" index="3" speed="33.52" length="3.17" shape="3173.24,-3399.98 3174.15,-3399.89 3174.75,-3399.67 3175.36,-3399.44 3176.27,-3399.35"/>
    </edge>
    <edge id=":J103_0" function="internal">
        <lane id=":J103_0_0" index="0" speed="24.42" length="3.46" shape="1526.82,550.98 1526.05,551.65 1525.55,552.15 1525.13,552.71 1524.57,553.57"/>
    </edge>
    <edge id=":J103_1" function="internal">
        <lane id=":J103_1_0" index="0" speed="33.52" length="3.47" shape="1523.75,548.92 1521.87,551.85"/>
        <lane id=":J103_1_1" index="1" speed="33.52" length="3.47" shape="1521.05,547.19 1519.18,550.12"/>
        <lane id=":J103_1_2" index="2" speed="33.52" length="3.47" shape="1518.36,545.47 1516.48,548.39"/>
        <lane id=":J103_1_3" index="3" speed="33.52" length="3.47" shape="1515.66,543.74 1513.79,546.67"/>
    </edge>
    <edge id=":J104_0" function="internal">
        <lane id=":J104_0_0" index="0" speed="31.29" length="4.36" shape="1329.86,857.35 1329.19,858.45 1328.80,859.25 1328.51,860.09 1328.12,861.33"/>
        <lane id=":J104_0_1" index="1" speed="31.29" length="6.10" shape="1327.17,855.62 1326.79,857.16 1327.39,858.36 1328.13,859.62 1328.12,861.33"/>
    </edge>
    <edge id=":J104_2" function="internal">
        <lane id=":J104_2_0" index="0" speed="33.52" length="4.81" shape="1327.17,855.62 1324.91,859.83"/>
        <lane id=":J104_2_1" index="1" speed="33.52" length="4.81" shape="1324.48,853.90 1322.20,858.12"/>
        <lane id=":J104_2_2" index="2" speed="33.52" length="4.81" shape="1321.78,852.17 1319.50,856.41"/>
        <lane id=":J104_2_3" index="3" speed="33.52" length="4.81" shape="1319.09,850.44 1316.79,854.70"/>
    </edge>
    <edge id=":J107_0" function="internal">
        <lane id=":J107_0_0" index="0" speed="31.29" length="5.29" shape="2584.07,-1209.83 2585.11,-1211.00 2585.76,-1211.85 2586.33,-1212.76 2587.17,-1214.09"/>
    </edge>
    <edge id=":J107_1" function="internal">
        <lane id=":J107_1_0" index="0" speed="33.52" length="3.07" shape="2588.52,-1209.56 2588.97,-1210.37 2589.19,-1210.96 2589.41,-1211.55 2589.86,-1212.35"/>
        <lane id=":J107_1_1" index="1" speed="33.52" length="3.07" shape="2591.22,-1207.84 2591.66,-1208.63 2591.88,-1209.22 2592.10,-1209.81 2592.54,-1210.61"/>
        <lane id=":J107_1_2" index="2" speed="33.52" length="3.07" shape="2593.91,-1206.11 2594.35,-1206.90 2594.56,-1207.49 2594.78,-1208.07 2595.22,-1208.86"/>
        <lane id=":J107_1_3" index="3" speed="33.52" length="3.07" shape="2596.60,-1204.38 2597.04,-1205.17 2597.25,-1205.75 2597.47,-1206.33 2597.91,-1207.12"/>
    </edge>
    <edge id=":J108_0" function="internal">
        <lane id=":J108_0_0" index="0" speed="31.29" length="4.89" shape="2812.41,-1560.93 2813.17,-1562.16 2813.62,-1563.05 2813.98,-1563.98 2814.48,-1565.35"/>
        <lane id=":J108_0_1" index="1" speed="31.29" length="6.49" shape="2815.10,-1559.19 2815.56,-1560.84 2815.00,-1562.16 2814.35,-1563.53 2814.48,-1565.35"/>
    </edge>
    <edge id=":J108_2" function="internal">
        <lane id=":J108_2_0" index="0" speed="33.52" length="5.25" shape="2815.10,-1559.19 2817.59,-1563.77"/>
        <lane id=":J108_2_1" index="1" speed="33.52" length="5.25" shape="2817.78,-1557.45 2820.29,-1562.05"/>
        <lane id=":J108_2_2" index="2" speed="33.52" length="5.25" shape="2820.47,-1555.70 2822.98,-1560.32"/>
        <lane id=":J108_2_3" index="3" speed="33.52" length="5.25" shape="2823.15,-1553.96 2825.68,-1558.59"/>
    </edge>
    <edge id=":J11_0" function="internal">
        <lane id=":J11_0_0" index="0" speed="30.17" length="24.15" shape="243.82,-203.44 243.40,-210.85 242.49,-216.15 241.25,-221.03 239.81,-227.18"/>
        <lane id=":J11_0_1" index="1" speed="30.17" length="24.74" shape="247.01,-203.49 246.59,-211.11 245.66,-216.60 244.39,-221.61 242.95,-227.81"/>
    </edge>
    <edge id=":J11_2" function="internal">
        <lane id=":J11_2_0" index="0" speed="33.52" length="24.73" shape="247.01,-203.49 246.87,-228.22"/>
        <lane id=":J11_2_1" index="1" speed="33.52" length="24.73" shape="250.21,-203.53 250.07,-228.26"/>
        <lane id=":J11_2_2" index="2" speed="33.52" length="24.73" shape="253.41,-203.57 253.26,-228.29"/>
    </edge>
    <edge id=":J111_0" function="internal">
        <lane id=":J111_0_0" index="0" speed="33.52" length="3.31" shape="194.36,-1797.49 194.18,-1800.80"/>
        <lane id=":J111_0_1" index="1" speed="33.52" length="3.31" shape="197.56,-1797.62 197.37,-1800.93"/>
        <lane id=":J111_0_2" index="2" speed="33.52" length="3.31" shape="200.75,-1797.76 200.57,-1801.06"/>
        <lane id=":J111_0_3" index="3" speed="33.52" length="3.31" shape="203.95,-1797.89 203.77,-1801.19"/>
    </edge>
    <edge id=":J111_4" function="internal">
        <lane id=":J111_4_0" index="0" speed="23.89" length="3.46" shape="190.61,-1797.25 190.86,-1798.25 190.98,-1798.94 191.01,-1799.65 190.98,-1800.67"/>
    </edge>
    <edge id=":J112_0" function="internal">
        <lane id=":J112_0_0" index="0" speed="31.29" length="3.40" shape="177.51,-2132.30 177.47,-2133.31 177.39,-2133.99 177.23,-2134.67 176.95,-2135.64"/>
        <lane id=":J112_0_1" index="1" speed="31.29" length="5.27" shape="180.71,-2132.43 180.18,-2133.64 179.06,-2134.07 177.82,-2134.48 176.95,-2135.64"/>
    </edge>
    <edge id=":J112_2" function="internal">
        <lane id=":J112_2_0" index="0" speed="33.52" length="3.59" shape="180.71,-2132.43 180.52,-2136.01"/>
        <lane id=":J112_2_1" index="1" speed="33.52" length="3.59" shape="183.91,-2132.56 183.72,-2136.14"/>
        <lane id=":J112_2_2" index="2" speed="33.52" length="3.59" shape="187.11,-2132.69 186.91,-2136.28"/>
        <lane id=":J112_2_3" index="3" speed="33.52" length="3.59" shape="190.30,-2132.82 190.11,-2136.41"/>
    </edge>
    <edge id=":J115_0" function="internal">
        <lane id=":J115_0_0" index="0" speed="31.29" length="3.27" shape="834.00,-469.02 834.95,-468.86 835.61,-468.78 836.28,-468.75 837.25,-468.75"/>
    </edge>
    <edge id=":J115_1" function="internal">
        <lane id=":J115_1_0" index="0" speed="33.52" length="3.28" shape="833.98,-465.54 837.25,-465.55"/>
        <lane id=":J115_1_1" index="1" speed="33.52" length="3.28" shape="833.98,-462.34 837.26,-462.35"/>
        <lane id=":J115_1_2" index="2" speed="33.52" length="3.28" shape="833.99,-459.14 837.27,-459.15"/>
        <lane id=":J115_1_3" index="3" speed="33.52" length="3.28" shape="834.00,-455.94 837.28,-455.95"/>
    </edge>
    <edge id=":J116_0" function="internal">
        <lane id=":J116_0_0" index="0" speed="31.29" length="3.36" shape="1219.46,-469.64 1220.45,-469.65 1221.14,-469.70 1221.81,-469.81 1222.78,-470.04"/>
        <lane id=":J116_0_1" index="1" speed="31.29" length="5.22" shape="1219.46,-466.44 1220.68,-466.93 1221.15,-468.03 1221.60,-469.24 1222.78,-470.04"/>
    </edge>
    <edge id=":J116_2" function="internal">
        <lane id=":J116_2_0" index="0" speed="33.52" length="3.37" shape="1219.46,-466.44 1222.83,-466.45"/>
        <lane id=":J116_2_1" index="1" speed="33.52" length="3.37" shape="1219.47,-463.24 1222.84,-463.25"/>
        <lane id=":J116_2_2" index="2" speed="33.52" length="3.37" shape="1219.48,-460.04 1222.85,-460.05"/>
        <lane id=":J116_2_3" index="3" speed="33.52" length="3.37" shape="1219.49,-456.84 1222.85,-456.85"/>
    </edge>
    <edge id=":J119_0" function="internal">
        <lane id=":J119_0_0" index="0" speed="31.29" length="3.24" shape="945.60,-420.66 944.64,-420.65 943.98,-420.62 943.33,-420.54 942.38,-420.40"/>
        <lane id=":J119_0_1" index="1" speed="31.29" length="4.72" shape="945.57,-423.86 942.38,-420.40"/>
    </edge>
    <edge id=":J119_2" function="internal">
        <lane id=":J119_2_0" index="0" speed="33.52" length="3.24" shape="945.57,-423.86 942.33,-423.84"/>
        <lane id=":J119_2_1" index="1" speed="33.52" length="3.24" shape="945.54,-427.06 942.30,-427.04"/>
        <lane id=":J119_2_2" index="2" speed="33.52" length="3.24" shape="945.52,-430.26 942.28,-430.24"/>
        <lane id=":J119_2_3" index="3" speed="33.52" length="3.24" shape="945.49,-433.46 942.25,-433.44"/>
    </edge>
    <edge id=":J12_0" function="internal">
        <lane id=":J12_0_0" index="0" speed="30.17" length="20.15" shape="1965.05,-130.88 1960.41,-127.33 1957.12,-124.95 1954.26,-122.19 1950.88,-117.51"/>
        <lane id=":J12_0_1" index="1" speed="30.17" length="20.15" shape="1963.02,-133.35 1958.22,-129.67 1954.78,-127.14 1951.75,-124.18 1948.19,-119.24"/>
    </edge>
    <edge id=":J12_2" function="internal">
        <lane id=":J12_2_0" index="0" speed="33.52" length="20.65" shape="1959.79,-136.26 1948.19,-119.24"/>
        <lane id=":J12_2_1" index="1" speed="33.52" length="20.65" shape="1957.13,-138.03 1945.50,-120.96"/>
        <lane id=":J12_2_2" index="2" speed="33.52" length="20.65" shape="1954.46,-139.80 1942.80,-122.69"/>
    </edge>
    <edge id=":J120_0" function="internal">
        <lane id=":J120_0_0" index="0" speed="31.29" length="3.34" shape="1339.47,-423.57 1338.50,-423.77 1337.83,-423.87 1337.15,-423.90 1336.16,-423.90"/>
    </edge>
    <edge id=":J120_1" function="internal">
        <lane id=":J120_1_0" index="0" speed="33.52" length="3.35" shape="1339.48,-427.13 1336.13,-427.10"/>
        <lane id=":J120_1_1" index="1" speed="33.52" length="3.35" shape="1339.45,-430.33 1336.10,-430.30"/>
        <lane id=":J120_1_2" index="2" speed="33.52" length="3.35" shape="1339.43,-433.53 1336.08,-433.50"/>
        <lane id=":J120_1_3" index="3" speed="33.52" length="3.35" shape="1339.40,-436.73 1336.05,-436.70"/>
    </edge>
    <edge id=":J123_0" function="internal">
        <lane id=":J123_0_0" index="0" speed="31.29" length="5.40" shape="1150.53,-3325.89 1148.93,-3325.82 1147.85,-3325.67 1146.77,-3325.43 1145.21,-3325.07"/>
        <lane id=":J123_0_1" index="1" speed="31.29" length="6.92" shape="1150.48,-3329.09 1148.71,-3328.54 1147.82,-3327.32 1146.93,-3325.98 1145.21,-3325.07"/>
    </edge>
    <edge id=":J123_2" function="internal">
        <lane id=":J123_2_0" index="0" speed="33.52" length="5.74" shape="1150.48,-3329.09 1144.80,-3328.51"/>
        <lane id=":J123_2_1" index="1" speed="33.52" length="5.74" shape="1150.43,-3332.29 1144.73,-3331.71"/>
        <lane id=":J123_2_2" index="2" speed="33.52" length="5.74" shape="1150.38,-3335.49 1144.65,-3334.91"/>
        <lane id=":J123_2_3" index="3" speed="33.52" length="5.74" shape="1150.32,-3338.69 1144.58,-3338.11"/>
    </edge>
    <edge id=":J124_0" function="internal">
        <lane id=":J124_0_0" index="0" speed="31.29" length="3.99" shape="1543.88,-3331.83 1542.72,-3332.04 1541.91,-3332.16 1541.11,-3332.21 1539.92,-3332.21"/>
    </edge>
    <edge id=":J124_1" function="internal">
        <lane id=":J124_1_0" index="0" speed="33.52" length="4.31" shape="1544.17,-3335.29 1539.87,-3335.41"/>
        <lane id=":J124_1_1" index="1" speed="33.52" length="4.31" shape="1544.12,-3338.48 1539.82,-3338.61"/>
        <lane id=":J124_1_2" index="2" speed="33.52" length="4.31" shape="1544.08,-3341.68 1539.77,-3341.81"/>
        <lane id=":J124_1_3" index="3" speed="33.52" length="4.31" shape="1544.04,-3344.88 1539.72,-3345.01"/>
    </edge>
    <edge id=":J127_0" function="internal">
        <lane id=":J127_0_0" index="0" speed="31.29" length="5.73" shape="2704.75,-3347.13 2703.04,-3347.12 2701.88,-3347.12 2700.72,-3347.02 2699.04,-3346.74"/>
        <lane id=":J127_0_1" index="1" speed="31.29" length="6.91" shape="2704.68,-3350.33 2702.85,-3349.83 2701.84,-3348.75 2700.84,-3347.56 2699.04,-3346.74"/>
    </edge>
    <edge id=":J127_2" function="internal">
        <lane id=":J127_2_0" index="0" speed="33.52" length="3.09" shape="2704.68,-3350.33 2703.77,-3350.39 2703.14,-3350.53 2702.52,-3350.68 2701.60,-3350.74"/>
        <lane id=":J127_2_1" index="1" speed="33.52" length="3.09" shape="2704.62,-3353.53 2703.71,-3353.58 2703.09,-3353.73 2702.47,-3353.88 2701.56,-3353.94"/>
        <lane id=":J127_2_2" index="2" speed="33.52" length="3.09" shape="2704.56,-3356.73 2703.65,-3356.78 2703.04,-3356.93 2702.42,-3357.08 2701.52,-3357.14"/>
        <lane id=":J127_2_3" index="3" speed="33.52" length="3.09" shape="2704.49,-3359.93 2703.59,-3359.98 2702.99,-3360.13 2702.38,-3360.28 2701.48,-3360.34"/>
    </edge>
    <edge id=":J128_0" function="internal">
        <lane id=":J128_0_0" index="0" speed="31.29" length="4.29" shape="3168.46,-3355.70 3167.22,-3355.98 3166.36,-3356.15 3165.49,-3356.22 3164.22,-3356.22"/>
    </edge>
    <edge id=":J128_1" function="internal">
        <lane id=":J128_1_0" index="0" speed="33.52" length="4.69" shape="3168.82,-3359.20 3164.16,-3359.42"/>
        <lane id=":J128_1_1" index="1" speed="33.52" length="4.69" shape="3168.77,-3362.40 3164.10,-3362.62"/>
        <lane id=":J128_1_2" index="2" speed="33.52" length="4.69" shape="3168.73,-3365.60 3164.03,-3365.82"/>
        <lane id=":J128_1_3" index="3" speed="33.52" length="4.69" shape="3168.68,-3368.80 3163.97,-3369.02"/>
    </edge>
    <edge id=":J13_0" function="internal">
        <lane id=":J13_0_0" index="0" speed="30.17" length="19.06" shape="2389.96,-776.56 2387.11,-771.69 2385.52,-768.17 2384.22,-764.50 2382.25,-759.19"/>
        <lane id=":J13_0_1" index="1" speed="30.17" length="19.65" shape="2387.25,-778.26 2384.31,-773.25 2382.66,-769.62 2381.31,-765.84 2379.27,-760.37"/>
    </edge>
    <edge id=":J13_2" function="internal">
        <lane id=":J13_2_0" index="0" speed="33.52" length="19.67" shape="2387.25,-778.26 2375.72,-762.23"/>
        <lane id=":J13_2_1" index="1" speed="33.52" length="19.67" shape="2384.54,-779.97 2373.05,-764.00"/>
        <lane id=":J13_2_2" index="2" speed="33.52" length="19.67" shape="2381.83,-781.67 2370.38,-765.77"/>
    </edge>
    <edge id=":J131_0" function="internal">
        <lane id=":J131_0_0" index="0" speed="31.29" length="6.26" shape="1254.43,872.02 1255.79,870.75 1256.73,869.88 1257.56,868.92 1258.58,867.38"/>
    </edge>
    <edge id=":J131_1" function="internal">
        <lane id=":J131_1_0" index="0" speed="33.52" length="6.74" shape="1257.18,874.24 1258.33,872.64 1259.26,871.65 1260.19,870.65 1261.31,869.04"/>
        <lane id=":J131_1_1" index="1" speed="33.52" length="6.74" shape="1259.89,875.94 1261.05,874.33 1261.99,873.33 1262.92,872.32 1264.05,870.69"/>
        <lane id=":J131_1_2" index="2" speed="33.52" length="6.74" shape="1262.60,877.64 1263.76,876.01 1264.71,875.01 1265.65,873.99 1266.79,872.35"/>
        <lane id=":J131_1_3" index="3" speed="33.52" length="6.74" shape="1265.31,879.34 1266.48,877.70 1267.43,876.69 1268.38,875.67 1269.52,874.01"/>
    </edge>
    <edge id=":J132_0" function="internal">
        <lane id=":J132_0_0" index="0" speed="31.29" length="5.26" shape="1464.49,527.72 1465.32,526.40 1465.88,525.48 1466.33,524.51 1466.81,523.04"/>
        <lane id=":J132_0_1" index="1" speed="31.29" length="6.60" shape="1467.22,529.38 1467.73,527.67 1467.30,526.33 1466.73,524.93 1466.81,523.04"/>
    </edge>
    <edge id=":J132_2" function="internal">
        <lane id=":J132_2_0" index="0" speed="33.52" length="3.15" shape="1467.22,529.38 1467.78,528.62 1468.28,528.19 1468.77,527.75 1469.34,527.00"/>
        <lane id=":J132_2_1" index="1" speed="33.52" length="3.15" shape="1469.96,531.04 1470.51,530.29 1471.00,529.86 1471.49,529.43 1472.06,528.69"/>
        <lane id=":J132_2_2" index="2" speed="33.52" length="3.15" shape="1472.69,532.70 1473.24,531.96 1473.73,531.54 1474.22,531.12 1474.77,530.39"/>
        <lane id=":J132_2_3" index="3" speed="33.52" length="3.15" shape="1475.43,534.36 1475.97,533.63 1476.45,533.21 1476.94,532.80 1477.49,532.08"/>
    </edge>
    <edge id=":J136_0" function="internal">
        <lane id=":J136_0_0" index="0" speed="31.29" length="3.33" shape="355.89,386.98 355.78,387.96 355.73,388.64 355.76,389.32 355.85,390.30"/>
    </edge>
    <edge id=":J136_1" function="internal">
        <lane id=":J136_1_0" index="0" speed="33.52" length="3.34" shape="352.35,387.27 352.66,390.60"/>
        <lane id=":J136_1_1" index="1" speed="33.52" length="3.34" shape="349.16,387.57 349.47,390.90"/>
        <lane id=":J136_1_2" index="2" speed="33.52" length="3.34" shape="345.98,387.87 346.29,391.19"/>
        <lane id=":J136_1_3" index="3" speed="33.52" length="3.34" shape="342.79,388.16 343.10,391.49"/>
    </edge>
    <edge id=":J137_0" function="internal">
        <lane id=":J137_0_0" index="0" speed="31.29" length="3.36" shape="387.68,731.34 387.77,732.34 387.88,733.01 388.06,733.67 388.37,734.62"/>
        <lane id=":J137_0_1" index="1" speed="31.29" length="5.22" shape="384.49,731.64 385.08,732.81 386.22,733.17 387.47,733.52 388.37,734.62"/>
    </edge>
    <edge id=":J137_2" function="internal">
        <lane id=":J137_2_0" index="0" speed="33.52" length="3.37" shape="384.49,731.64 384.80,735.00"/>
        <lane id=":J137_2_1" index="1" speed="33.52" length="3.37" shape="381.30,731.94 381.62,735.29"/>
        <lane id=":J137_2_2" index="2" speed="33.52" length="3.37" shape="378.12,732.23 378.43,735.59"/>
        <lane id=":J137_2_3" index="3" speed="33.52" length="3.37" shape="374.93,732.53 375.24,735.89"/>
    </edge>
    <edge id=":J14_0" function="internal">
        <lane id=":J14_0_0" index="0" speed="23.85" length="14.61" shape="305.97,2397.79 307.97,2394.01 308.81,2391.18 309.15,2388.17 309.61,2383.85"/>
        <lane id=":J14_0_1" index="1" speed="24.88" length="15.90" shape="308.71,2399.44 310.90,2395.33 311.86,2392.26 312.26,2388.99 312.78,2384.29"/>
    </edge>
    <edge id=":J14_2" function="internal">
        <lane id=":J14_2_0" index="0" speed="33.52" length="15.97" shape="308.71,2399.44 317.29,2385.92"/>
        <lane id=":J14_2_1" index="1" speed="33.52" length="15.97" shape="311.45,2401.09 320.01,2387.61"/>
        <lane id=":J14_2_2" index="2" speed="33.52" length="15.97" shape="314.19,2402.74 322.73,2389.30"/>
    </edge>
    <edge id=":J140_0" function="internal">
        <lane id=":J140_0_0" index="0" speed="33.52" length="3.07" shape="360.16,1027.02 360.02,1026.12 359.85,1025.51 359.67,1024.90 359.54,1024.00"/>
        <lane id=":J140_0_1" index="1" speed="33.52" length="3.07" shape="363.35,1026.70 363.20,1025.80 363.03,1025.19 362.86,1024.59 362.72,1023.69"/>
        <lane id=":J140_0_2" index="2" speed="33.52" length="3.07" shape="366.53,1026.37 366.39,1025.48 366.21,1024.88 366.04,1024.28 365.91,1023.38"/>
        <lane id=":J140_0_3" index="3" speed="33.52" length="3.07" shape="369.71,1026.04 369.57,1025.15 369.40,1024.56 369.23,1023.96 369.09,1023.08"/>
    </edge>
    <edge id=":J140_4" function="internal">
        <lane id=":J140_4_0" index="0" speed="31.29" length="4.34" shape="356.34,1028.62 356.51,1027.35 356.55,1026.47 356.48,1025.58 356.35,1024.30"/>
    </edge>
    <edge id=":J141_0" function="internal">
        <lane id=":J141_0_0" index="0" speed="31.29" length="4.03" shape="316.34,608.75 316.20,607.57 316.05,606.77 315.81,605.98 315.42,604.85"/>
        <lane id=":J141_0_1" index="1" speed="31.29" length="5.77" shape="319.52,608.45 318.90,607.10 317.70,606.60 316.39,606.12 315.42,604.85"/>
    </edge>
    <edge id=":J141_2" function="internal">
        <lane id=":J141_2_0" index="0" speed="33.52" length="4.42" shape="319.52,608.45 318.86,604.10"/>
        <lane id=":J141_2_1" index="1" speed="33.52" length="4.42" shape="322.71,608.14 322.04,603.78"/>
        <lane id=":J141_2_2" index="2" speed="33.52" length="4.42" shape="325.89,607.83 325.23,603.46"/>
        <lane id=":J141_2_3" index="3" speed="33.52" length="4.42" shape="329.08,607.53 328.41,603.14"/>
    </edge>
    <edge id=":J15_0" function="internal">
        <lane id=":J15_0_0" index="0" speed="30.17" length="19.54" shape="773.42,1733.79 770.63,1738.80 769.34,1742.54 768.55,1746.50 767.29,1752.17"/>
        <lane id=":J15_0_1" index="1" speed="30.17" length="20.52" shape="770.72,1732.09 767.76,1737.37 766.37,1741.32 765.52,1745.48 764.19,1751.36"/>
    </edge>
    <edge id=":J15_2" function="internal">
        <lane id=":J15_2_0" index="0" speed="33.52" length="20.52" shape="770.72,1732.09 760.20,1749.66"/>
        <lane id=":J15_2_1" index="1" speed="33.52" length="20.52" shape="768.01,1730.38 757.48,1747.99"/>
        <lane id=":J15_2_2" index="2" speed="33.52" length="20.52" shape="765.30,1728.67 754.75,1746.32"/>
    </edge>
    <edge id=":J16_0" function="internal">
        <lane id=":J16_0_0" index="0" speed="33.52" length="29.36" shape="242.15,-689.75 242.58,-719.01"/>
        <lane id=":J16_0_1" index="1" speed="33.52" length="29.36" shape="245.35,-689.78 245.77,-719.14"/>
        <lane id=":J16_0_2" index="2" speed="33.52" length="29.36" shape="248.55,-689.82 248.97,-719.28"/>
    </edge>
    <edge id=":J16_3" function="internal">
        <lane id=":J16_3_0" index="0" speed="30.17" length="29.02" shape="235.05,-690.69 236.59,-697.23 238.13,-703.12 239.21,-709.84 239.38,-718.88"/>
        <lane id=":J16_3_1" index="1" speed="30.17" length="29.02" shape="238.20,-690.10 239.74,-696.71 241.31,-702.76 242.41,-709.71 242.58,-719.01"/>
    </edge>
    <edge id=":J17_0" function="internal">
        <lane id=":J17_0_0" index="0" speed="30.17" length="13.87" shape="3791.27,-3084.17 3793.36,-3087.69 3794.49,-3090.27 3795.33,-3092.98 3796.53,-3096.93"/>
        <lane id=":J17_0_1" index="1" speed="30.17" length="14.69" shape="3793.96,-3082.45 3796.18,-3086.17 3797.40,-3088.89 3798.30,-3091.76 3799.57,-3095.94"/>
    </edge>
    <edge id=":J17_2" function="internal">
        <lane id=":J17_2_0" index="0" speed="33.52" length="14.80" shape="3793.96,-3082.45 3796.54,-3086.05 3798.60,-3088.28 3800.73,-3090.48 3803.49,-3093.95"/>
        <lane id=":J17_2_1" index="1" speed="33.52" length="14.80" shape="3796.65,-3080.72 3799.20,-3084.28 3801.25,-3086.49 3803.36,-3088.66 3806.09,-3092.09"/>
        <lane id=":J17_2_2" index="2" speed="33.52" length="14.80" shape="3799.35,-3079.00 3801.87,-3082.51 3803.90,-3084.69 3805.99,-3086.83 3808.69,-3090.22"/>
    </edge>
    <edge id=":J18_0" function="internal">
        <lane id=":J18_0_0" index="0" speed="30.17" length="19.71" shape="143.87,-3018.69 143.35,-3024.47 142.37,-3028.34 140.91,-3032.13 138.93,-3037.64"/>
        <lane id=":J18_0_1" index="1" speed="30.17" length="20.58" shape="147.06,-3018.83 146.52,-3024.89 145.51,-3028.99 144.01,-3032.96 141.98,-3038.63"/>
    </edge>
    <edge id=":J18_2" function="internal">
        <lane id=":J18_2_0" index="0" speed="33.52" length="20.58" shape="147.06,-3018.83 146.15,-3039.38"/>
        <lane id=":J18_2_1" index="1" speed="33.52" length="20.58" shape="150.26,-3018.96 149.35,-3039.52"/>
        <lane id=":J18_2_2" index="2" speed="33.52" length="20.58" shape="153.46,-3019.09 152.55,-3039.65"/>
    </edge>
    <edge id=":J19_0" function="internal">
        <lane id=":J19_0_0" index="0" speed="30.17" length="17.66" shape="51.01,-411.68 46.19,-413.39 42.88,-414.62 39.48,-415.37 34.44,-415.62"/>
        <lane id=":J19_0_1" index="1" speed="30.17" length="17.66" shape="51.98,-414.73 46.89,-416.53 43.37,-417.81 39.77,-418.57 34.44,-418.82"/>
    </edge>
    <edge id=":J19_2" function="internal">
        <lane id=":J19_2_0" index="0" speed="33.52" length="18.18" shape="52.64,-419.11 34.44,-418.82"/>
        <lane id=":J19_2_1" index="1" speed="33.52" length="18.18" shape="52.61,-422.31 34.44,-422.02"/>
        <lane id=":J19_2_2" index="2" speed="33.52" length="18.18" shape="52.58,-425.51 34.43,-425.22"/>
    </edge>
    <edge id=":J2_0" function="internal">
        <lane id=":J2_0_0" index="0" speed="30.17" length="23.05" shape="2525.74,-424.37 2518.73,-424.07 2513.78,-423.25 2509.14,-422.05 2503.08,-420.63"/>
        <lane id=":J2_0_1" index="1" speed="30.17" length="23.69" shape="2525.74,-427.57 2518.50,-427.26 2513.35,-426.42 2508.56,-425.20 2502.45,-423.77"/>
    </edge>
    <edge id=":J2_2" function="internal">
        <lane id=":J2_2_0" index="0" speed="33.52" length="23.68" shape="2525.74,-427.57 2502.06,-427.75"/>
        <lane id=":J2_2_1" index="1" speed="33.52" length="23.68" shape="2525.75,-430.77 2502.07,-430.95"/>
        <lane id=":J2_2_2" index="2" speed="33.52" length="23.68" shape="2525.76,-433.97 2502.09,-434.15"/>
    </edge>
    <edge id=":J20_0" function="internal">
        <lane id=":J20_0_0" index="0" speed="30.17" length="19.27" shape="525.45,2627.27 524.62,2621.67 523.41,2617.96 521.68,2614.38 519.30,2609.17"/>
        <lane id=":J20_0_1" index="1" speed="30.17" length="20.22" shape="528.64,2626.97 527.78,2621.08 526.52,2617.18 524.73,2613.41 522.26,2607.94"/>
    </edge>
    <edge id=":J20_2" function="internal">
        <lane id=":J20_2_0" index="0" speed="33.52" length="20.23" shape="528.64,2626.97 526.45,2606.88"/>
        <lane id=":J20_2_1" index="1" speed="33.52" length="20.23" shape="531.82,2626.66 529.63,2606.55"/>
        <lane id=":J20_2_2" index="2" speed="33.52" length="20.23" shape="535.01,2626.36 532.81,2606.23"/>
    </edge>
    <edge id=":J21_0" function="internal">
        <lane id=":J21_0_0" index="0" speed="27.97" length="20.06" shape="3861.34,-3094.75 3856.45,-3091.67 3852.97,-3089.60 3850.00,-3087.04 3846.65,-3082.47"/>
        <lane id=":J21_0_1" index="1" speed="28.87" length="20.06" shape="3859.52,-3097.38 3854.39,-3094.12 3850.70,-3091.87 3847.52,-3089.08 3843.94,-3084.18"/>
    </edge>
    <edge id=":J21_2" function="internal">