<?xml version="1.0" encoding="UTF-8"?>

<!-- generated on 2024-05-06 11:30:03.729872 by osmWebWizard.py v1_19_0+0000-baa66a0f364
<configuration>
    <net-file value="C:\Users\weizi\Sumo\2024-05-06-11-30-01\osm.net.xml.gz"/>
    <output-trip-file value="C:\Users\weizi\Sumo\2024-05-06-11-30-01\osm.passenger.trips.xml"/>
    <route-file value="C:\Users\weizi\Sumo\2024-05-06-11-30-01\osm.passenger.rou.xml"/>
    <prefix value="veh"/>
    <trip-attributes value="departLane=&quot;best&quot;"/>
    <fringe-start-attributes value="departSpeed=&quot;max&quot;"/>
    <vehicle-class value="passenger"/>
    <lanes value="True"/>
    <fringe-factor value="5"/>
    <allow-fringe.min-length value="1000.0"/>
    <via-edge-types value="highway.motorway,highway.motorway_link,highway.trunk_link,highway.primary_link,highway.secondary_link,highway.tertiary_link"/>
    <min-distance value="300.0"/>
    <min-distance.fringe value="10.0"/>
    <remove-loops value="True"/>
    <validate value="True"/>
    <insertion-density value="12.0"/>
</configuration>
-->

<!-- generated on 2024-05-06 11:30:03 by Eclipse SUMO duarouter Version 1.19.0
<configuration xmlns:xsi="http://www.w3.org/2001/XMLSchema-instance" xsi:noNamespaceSchemaLocation="http://sumo.dlr.de/xsd/duarouterConfiguration.xsd">

    <input>
        <net-file value="C:\Users\weizi\Sumo\2024-05-06-11-30-01\osm.net.xml.gz"/>
        <route-files value="C:\Users\weizi\Sumo\2024-05-06-11-30-01\osm.passenger.trips.xml"/>
    </input>

    <output>
        <output-file value="C:\Users\weizi\Sumo\2024-05-06-11-30-01\osm.passenger.trips.xml.tmp"/>
        <alternatives-output value="NUL"/>
        <write-trips value="true"/>
    </output>

    <processing>
        <remove-loops value="true"/>
    </processing>

    <time>
        <begin value="0.0"/>
        <end value="3600.0"/>
    </time>

    <report>
        <no-warnings value="true"/>
        <ignore-errors value="true"/>
        <no-step-log value="true"/>
    </report>

</configuration>
-->

<routes xmlns:xsi="http://www.w3.org/2001/XMLSchema-instance" xsi:noNamespaceSchemaLocation="http://sumo.dlr.de/xsd/routes_file.xsd">
    <vType id="veh_passenger" vClass="passenger"/>
    <trip id="veh0" type="veh_passenger" depart="0.00" departLane="best" departSpeed="max" from="38733212" to="103600933"/>
    <trip id="veh1" type="veh_passenger" depart="1.06" departLane="best" departSpeed="max" from="245860218" to="20865896"/>
    <trip id="veh2" type="veh_passenger" depart="2.13" departLane="best" departSpeed="max" from="907637047" to="106105133"/>
    <trip id="veh3" type="veh_passenger" depart="3.19" departLane="best" departSpeed="max" from="38732181" to="103600933"/>
    <trip id="veh4" type="veh_passenger" depart="4.26" departLane="best" departSpeed="max" from="245860218" to="38732879"/>
    <trip id="veh6" type="veh_passenger" depart="6.39" departLane="best" departSpeed="max" from="38733212" to="38732991"/>
    <trip id="veh7" type="veh_passenger" depart="7.45" departLane="best" departSpeed="max" from="245860218" to="38733275"/>
    <trip id="veh9" type="veh_passenger" depart="9.58" departLane="best" departSpeed="max" from="560218461" to="52975046"/>
    <trip id="veh10" type="veh_passenger" depart="10.65" departLane="best" departSpeed="max" from="364277014" to="1202002183"/>
    <trip id="veh12" type="veh_passenger" depart="12.77" departLane="best" departSpeed="max" from="106105109" to="1202002183"/>
    <trip id="veh13" type="veh_passenger" depart="13.84" departLane="best" departSpeed="max" from="599001677" to="38733501"/>
    <trip id="veh16" type="veh_passenger" depart="17.03" departLane="best" departSpeed="max" from="599001677" to="38733501"/>
    <trip id="veh17" type="veh_passenger" depart="18.10" departLane="best" departSpeed="max" from="599001677" to="38733191"/>
    <trip id="veh19" type="veh_passenger" depart="20.23" departLane="best" departSpeed="max" from="245860218" to="364277015"/>
    <trip id="veh21" type="veh_passenger" depart="22.36" departLane="best" departSpeed="max" from="106105109" to="309152598"/>
    <trip id="veh22" type="veh_passenger" depart="23.42" departLane="best" departSpeed="max" from="38733212" to="38732024"/>
    <trip id="veh24" type="veh_passenger" depart="25.55" departLane="best" departSpeed="max" from="245860218" to="909636473"/>
    <trip id="veh25" type="veh_passenger" depart="26.61" departLane="best" departSpeed="max" from="38733212" to="38733501"/>
    <trip id="veh26" type="veh_passenger" depart="27.68" departLane="best" departSpeed="max" from="210635089" to="560218463"/>
    <trip id="veh27" type="veh_passenger" depart="28.74" departLane="best" departSpeed="max" from="210635089" to="38732174"/>
    <trip id="veh28" type="veh_passenger" depart="29.81" departLane="best" departSpeed="max" from="967586401" to="423174996#0"/>
    <trip id="veh29" type="veh_passenger" depart="30.87" departLane="best" departSpeed="max" from="38732877" to="423174996#0"/>
    <trip id="veh30" type="veh_passenger" depart="31.94" departLane="best" departSpeed="max" from="599001677" to="599001654"/>
    <trip id="veh31" type="veh_passenger" depart="33.00" departLane="best" departSpeed="max" from="245860218" to="103600933"/>
    <trip id="veh32" type="veh_passenger" depart="34.07" departLane="best" departSpeed="max" from="245860218" to="309152598"/>
    <trip id="veh33" type="veh_passenger" depart="35.13" departLane="best" departSpeed="max" from="210635089" to="909636473"/>
    <trip id="veh39" type="veh_passenger" depart="41.52" departLane="best" departSpeed="max" from="38732903" to="909636473"/>
    <trip id="veh41" type="veh_passenger" depart="43.65" departLane="best" departSpeed="max" from="967586401" to="38732879"/>
    <trip id="veh42" type="veh_passenger" depart="44.71" departLane="best" departSpeed="max" from="106105109" to="423174996#0"/>
    <trip id="veh46" type="veh_passenger" depart="48.97" departLane="best" departSpeed="max" from="967586401" to="909636473"/>
    <trip id="veh48" type="veh_passenger" depart="51.10" departLane="best" departSpeed="max" from="419728161" to="38732991"/>
    <trip id="veh49" type="veh_passenger" depart="52.16" departLane="best" departSpeed="max" from="245860218" to="423174996#0"/>
    <trip id="veh53" type="veh_passenger" depart="56.42" departLane="best" departSpeed="max" from="907637047" to="909636473"/>
    <trip id="veh54" type="veh_passenger" depart="57.49" departLane="best" departSpeed="max" from="245860218" to="423174996#0"/>
    <trip id="veh56" type="veh_passenger" depart="59.62" departLane="best" departSpeed="max" from="52975067" to="38732991"/>
    <trip id="veh61" type="veh_passenger" depart="64.94" departLane="best" departSpeed="max" from="245860218" to="106105133"/>
    <trip id="veh65" type="veh_passenger" depart="69.20" departLane="best" departSpeed="max" from="52975067" to="1202002183"/>
    <trip id="veh66" type="veh_passenger" depart="70.26" departLane="best" departSpeed="max" from="38732336" to="38732991"/>
    <trip id="veh67" type="veh_passenger" depart="71.33" departLane="best" departSpeed="max" from="245860218" to="909636473"/>
    <trip id="veh70" type="veh_passenger" depart="74.52" departLane="best" departSpeed="max" from="210635089" to="364277016"/>
    <trip id="veh71" type="veh_passenger" depart="75.58" departLane="best" departSpeed="max" from="967586401" to="423174996#0"/>
    <trip id="veh73" type="veh_passenger" depart="77.71" departLane="best" departSpeed="max" from="106105109" to="20865896"/>
    <trip id="veh77" type="veh_passenger" depart="81.97" departLane="best" departSpeed="max" from="245860218" to="909636473"/>
    <trip id="veh78" type="veh_passenger" depart="83.04" departLane="best" departSpeed="max" from="599001677" to="106105133"/>
    <trip id="veh79" type="veh_passenger" depart="84.10" departLane="best" departSpeed="max" from="245860218" to="423174996#0"/>
    <trip id="veh80" type="veh_passenger" depart="85.17" departLane="best" departSpeed="max" from="96167787" to="38733191"/>
    <trip id="veh85" type="veh_passenger" depart="90.49" departLane="best" departSpeed="max" from="967586401" to="1202002183"/>
    <trip id="veh90" type="veh_passenger" depart="95.81" departLane="best" departSpeed="max" from="245860218" to="909636473"/>
    <trip id="veh92" type="veh_passenger" depart="97.94" departLane="best" departSpeed="max" from="38732877" to="106105133"/>
    <trip id="veh93" type="veh_passenger" depart="99.01" departLane="best" departSpeed="max" from="967586401" to="909636473"/>
    <trip id="veh94" type="veh_passenger" depart="100.07" departLane="best" departSpeed="max" from="967586401" to="909636473"/>
    <trip id="veh97" type="veh_passenger" depart="103.26" departLane="best" departSpeed="max" from="38732030" to="106105133"/>
    <trip id="veh99" type="veh_passenger" depart="105.39" departLane="best" departSpeed="max" from="245860218" to="909506831"/>
    <trip id="veh100" type="veh_passenger" depart="106.46" departLane="best" departSpeed="max" from="967586401" to="962846815"/>
    <trip id="veh101" type="veh_passenger" depart="107.52" departLane="best" departSpeed="max" from="38732877" to="560218463"/>
    <trip id="veh102" type="veh_passenger" depart="108.59" departLane="best" departSpeed="max" from="210635089" to="364277015"/>
    <trip id="veh104" type="veh_passenger" depart="110.72" departLane="best" departSpeed="max" from="38732828" to="599001654"/>
    <trip id="veh106" type="veh_passenger" depart="112.84" departLane="best" departSpeed="max" from="38732807" to="909636473"/>
    <trip id="veh107" type="veh_passenger" depart="113.91" departLane="best" departSpeed="max" from="210635089" to="96167788"/>
    <trip id="veh109" type="veh_passenger" depart="116.04" departLane="best" departSpeed="max" from="38733011" to="423174996#0"/>
    <trip id="veh110" type="veh_passenger" depart="117.10" departLane="best" departSpeed="max" from="245860218" to="1202002183"/>
    <trip id="veh112" type="veh_passenger" depart="119.23" departLane="best" departSpeed="max" from="38733011" to="38733501"/>
    <trip id="veh114" type="veh_passenger" depart="121.36" departLane="best" departSpeed="max" from="38732828" to="909636473"/>
    <trip id="veh115" type="veh_passenger" depart="122.43" departLane="best" departSpeed="max" from="210635089" to="560218463"/>
    <trip id="veh119" type="veh_passenger" depart="126.68" departLane="best" departSpeed="max" from="967586401" to="962846815"/>
    <trip id="veh121" type="veh_passenger" depart="128.81" departLane="best" departSpeed="max" from="245860218" to="909636473"/>
    <trip id="veh124" type="veh_passenger" depart="132.01" departLane="best" departSpeed="max" from="599001677" to="52975046"/>
    <trip id="veh128" type="veh_passenger" depart="136.27" departLane="best" departSpeed="max" from="38733271" to="909636473"/>
    <trip id="veh129" type="veh_passenger" depart="137.33" departLane="best" departSpeed="max" from="1155438175" to="1202002183"/>
    <trip id="veh130" type="veh_passenger" depart="138.39" departLane="best" departSpeed="max" from="106105109" to="38732991"/>
    <trip id="veh133" type="veh_passenger" depart="141.59" departLane="best" departSpeed="max" from="38732778" to="909636473"/>
    <trip id="veh134" type="veh_passenger" depart="142.65" departLane="best" departSpeed="max" from="599001677" to="1202002183"/>
    <trip id="veh138" type="veh_passenger" depart="146.91" departLane="best" departSpeed="max" from="52975065#0" to="38732991"/>
    <trip id="veh141" type="veh_passenger" depart="150.11" departLane="best" departSpeed="max" from="907637047" to="38732991"/>
    <trip id="veh143" type="veh_passenger" depart="152.23" departLane="best" departSpeed="max" from="1155438175" to="1202002183"/>
    <trip id="veh144" type="veh_passenger" depart="153.30" departLane="best" departSpeed="max" from="245860218" to="909636473"/>
    <trip id="veh145" type="veh_passenger" depart="154.36" departLane="best" departSpeed="max" from="52975067" to="909636473"/>
    <trip id="veh146" type="veh_passenger" depart="155.43" departLane="best" departSpeed="max" from="907637047" to="203257642"/>
    <trip id="veh147" type="veh_passenger" depart="156.49" departLane="best" departSpeed="max" from="245860218" to="1202002183"/>
    <trip id="veh148" type="veh_passenger" depart="157.56" departLane="best" departSpeed="max" from="52975067" to="909636473"/>
    <trip id="veh149" type="veh_passenger" depart="158.62" departLane="best" departSpeed="max" from="38732030" to="38733501"/>
    <trip id="veh150" type="veh_passenger" depart="159.69" departLane="best" departSpeed="max" from="210635089" to="909636473"/>
    <trip id="veh151" type="veh_passenger" depart="160.75" departLane="best" departSpeed="max" from="599001677" to="96167788"/>
    <trip id="veh152" type="veh_passenger" depart="161.82" departLane="best" departSpeed="max" from="560218461" to="909636473"/>
    <trip id="veh153" type="veh_passenger" depart="162.88" departLane="best" departSpeed="max" from="103601005" to="599001654"/>
    <trip id="veh154" type="veh_passenger" depart="163.94" departLane="best" departSpeed="max" from="364277014" to="909636473"/>
    <trip id="veh155" type="veh_passenger" depart="165.01" departLane="best" departSpeed="max" from="52975067" to="909636473"/>
    <trip id="veh156" type="veh_passenger" depart="166.07" departLane="best" departSpeed="max" from="560218461" to="309152598"/>
    <trip id="veh157" type="veh_passenger" depart="167.14" departLane="best" departSpeed="max" from="52975067" to="1202002183"/>
    <trip id="veh159" type="veh_passenger" depart="169.27" departLane="best" departSpeed="max" from="245860218" to="909506831"/>
    <trip id="veh161" type="veh_passenger" depart="171.40" departLane="best" departSpeed="max" from="52975067" to="20865896"/>
    <trip id="veh163" type="veh_passenger" depart="173.53" departLane="best" departSpeed="max" from="364277014" to="909636473"/>
    <trip id="veh164" type="veh_passenger" depart="174.59" departLane="best" departSpeed="max" from="967586401" to="309152598"/>
    <trip id="veh166" type="veh_passenger" depart="176.72" departLane="best" departSpeed="max" from="967586401" to="38732991"/>
    <trip id="veh167" type="veh_passenger" depart="177.78" departLane="best" departSpeed="max" from="96167787" to="1202002183"/>
    <trip id="veh171" type="veh_passenger" depart="182.04" departLane="best" departSpeed="max" from="52975065#0" to="364277016"/>
    <trip id="veh172" type="veh_passenger" depart="183.11" departLane="best" departSpeed="max" from="38733011" to="38732937"/>
    <trip id="veh174" type="veh_passenger" depart="185.24" departLane="best" departSpeed="max" from="245860218" to="52975046"/>
    <trip id="veh179" type="veh_passenger" depart="190.56" departLane="best" departSpeed="max" from="245860218" to="909636473"/>
    <trip id="veh181" type="veh_passenger" depart="192.69" departLane="best" departSpeed="max" from="245860218" to="38732281"/>
    <trip id="veh182" type="veh_passenger" depart="193.75" departLane="best" departSpeed="max" from="38732030" to="364277015"/>
    <trip id="veh184" type="veh_passenger" depart="195.88" departLane="best" departSpeed="max" from="907637047" to="38733501"/>
    <trip id="veh185" type="veh_passenger" depart="196.95" departLane="best" departSpeed="max" from="245860218" to="38732991"/>
    <trip id="veh190" type="veh_passenger" depart="202.27" departLane="best" departSpeed="max" from="38732336" to="909636473"/>
    <trip id="veh194" type="veh_passenger" depart="206.53" departLane="best" departSpeed="max" from="560218461" to="599001654"/>
    <trip id="veh196" type="veh_passenger" depart="208.66" departLane="best" departSpeed="max" from="210635089" to="103600933"/>
    <trip id="veh197" type="veh_passenger" depart="209.72" departLane="best" departSpeed="max" from="245860218" to="38732792"/>
    <trip id="veh198" type="veh_passenger" depart="210.79" departLane="best" departSpeed="max" from="599001677" to="106105133"/>
    <trip id="veh200" type="veh_passenger" depart="212.92" departLane="best" departSpeed="max" from="210635089" to="52975046"/>
    <trip id="veh203" type="veh_passenger" depart="216.11" departLane="best" departSpeed="max" from="52975065#0" to="599001654"/>
    <trip id="veh205" type="veh_passenger" depart="218.24" departLane="best" departSpeed="max" from="210635089" to="96167788"/>
    <trip id="veh206" type="veh_passenger" depart="219.30" departLane="best" departSpeed="max" from="38732807" to="106105133"/>
    <trip id="veh207" type="veh_passenger" depart="220.37" departLane="best" departSpeed="max" from="245860218" to="909636473"/>
    <trip id="veh210" type="veh_passenger" depart="223.56" departLane="best" departSpeed="max" from="38733011" to="909636473"/>
    <trip id="veh211" type="veh_passenger" depart="224.63" departLane="best" departSpeed="max" from="907637047" to="38733501"/>
    <trip id="veh212" type="veh_passenger" depart="225.69" departLane="best" departSpeed="max" from="52975065#0" to="38732879"/>
    <trip id="veh213" type="veh_passenger" depart="226.75" departLane="best" departSpeed="max" from="599001677" to="38732991"/>
    <trip id="veh214" type="veh_passenger" depart="227.82" departLane="best" departSpeed="max" from="907637047" to="599001654"/>
    <trip id="veh216" type="veh_passenger" depart="229.95" departLane="best" departSpeed="max" from="245860218" to="423174996#0"/>
    <trip id="veh220" type="veh_passenger" depart="234.21" departLane="best" departSpeed="max" from="245860218" to="364277016"/>
    <trip id="veh222" type="veh_passenger" depart="236.34" departLane="best" departSpeed="max" from="245860218" to="52975046"/>
    <trip id="veh224" type="veh_passenger" depart="238.46" departLane="best" departSpeed="max" from="38732030" to="38732991"/>
    <trip id="veh228" type="veh_passenger" depart="242.72" departLane="best" departSpeed="max" from="599001677" to="599001654"/>
    <trip id="veh230" type="veh_passenger" depart="244.85" departLane="best" departSpeed="max" from="364277020" to="599001654"/>
    <trip id="veh232" type="veh_passenger" depart="246.98" departLane="best" departSpeed="max" from="38732877" to="38733501"/>
    <trip id="veh234" type="veh_passenger" depart="249.11" departLane="best" departSpeed="max" from="38732271" to="103600933"/>
    <trip id="veh235" type="veh_passenger" depart="250.18" departLane="best" departSpeed="max" from="364277014" to="423174996#0"/>
    <trip id="veh239" type="veh_passenger" depart="254.43" departLane="best" departSpeed="max" from="38732030" to="38733191"/>
    <trip id="veh240" type="veh_passenger" depart="255.50" departLane="best" departSpeed="max" from="103601005" to="423174996#0"/>
    <trip id="veh243" type="veh_passenger" depart="258.69" departLane="best" departSpeed="max" from="210635089" to="364277016"/>
    <trip id="veh245" type="veh_passenger" depart="260.82" departLane="best" departSpeed="max" from="52975065#0" to="909636473"/>
    <trip id="veh246" type="veh_passenger" depart="261.89" departLane="best" departSpeed="max" from="245860218" to="106105133"/>
    <trip id="veh249" type="veh_passenger" depart="265.08" departLane="best" departSpeed="max" from="38733212" to="909506831"/>
    <trip id="veh250" type="veh_passenger" depart="266.14" departLane="best" departSpeed="max" from="38733212" to="599001654"/>
    <trip id="veh252" type="veh_passenger" depart="268.27" departLane="best" departSpeed="max" from="103600996" to="1202002183"/>
    <trip id="veh253" type="veh_passenger" depart="269.34" departLane="best" departSpeed="max" from="106105109" to="423174996#0"/>
    <trip id="veh256" type="veh_passenger" depart="272.53" departLane="best" departSpeed="max" from="210635089" to="38733501"/>
    <trip id="veh257" type="veh_passenger" depart="273.60" departLane="best" departSpeed="max" from="52975065#0" to="1202002183"/>
    <trip id="veh258" type="veh_passenger" depart="274.66" departLane="best" departSpeed="max" from="560218461" to="96167788"/>
    <trip id="veh259" type="veh_passenger" depart="275.72" departLane="best" departSpeed="max" from="106105109" to="103600933"/>
    <trip id="veh260" type="veh_passenger" depart="276.79" departLane="best" departSpeed="max" from="245860218" to="423174996#0"/>
    <trip id="veh263" type="veh_passenger" depart="279.98" departLane="best" departSpeed="max" from="419728161" to="423174996#0"/>
    <trip id="veh264" type="veh_passenger" depart="281.05" departLane="best" departSpeed="max" from="106105109" to="599001654"/>
    <trip id="veh265" type="veh_passenger" depart="282.11" departLane="best" departSpeed="max" from="599001677" to="38733501"/>
    <trip id="veh267" type="veh_passenger" depart="284.24" departLane="best" departSpeed="max" from="38732181" to="38732024"/>
    <trip id="veh270" type="veh_passenger" depart="287.44" departLane="best" departSpeed="max" from="38733212" to="909636473"/>
    <trip id="veh273" type="veh_passenger" depart="290.63" departLane="best" departSpeed="max" from="245860218" to="909506831"/>
    <trip id="veh275" type="veh_passenger" depart="292.76" departLane="best" departSpeed="max" from="245860218" to="909636473"/>
    <trip id="veh276" type="veh_passenger" depart="293.82" departLane="best" departSpeed="max" from="599001677" to="106105133"/>
    <trip id="veh278" type="veh_passenger" depart="295.95" departLane="best" departSpeed="max" from="38732336" to="38733501"/>
    <trip id="veh280" type="veh_passenger" depart="298.08" departLane="best" departSpeed="max" from="599001677" to="15338613"/>
    <trip id="veh281" type="veh_passenger" depart="299.15" departLane="best" departSpeed="max" from="210635089" to="909506831"/>
    <trip id="veh282" type="veh_passenger" depart="300.21" departLane="best" departSpeed="max" from="364277014" to="909636473"/>
    <trip id="veh285" type="veh_passenger" depart="303.40" departLane="best" departSpeed="max" from="38732778" to="599001654"/>
    <trip id="veh286" type="veh_passenger" depart="304.47" departLane="best" departSpeed="max" from="419728161" to="423174996#0"/>
    <trip id="veh289" type="veh_passenger" depart="307.66" departLane="best" departSpeed="max" from="419728161" to="364277015"/>
    <trip id="veh292" type="veh_passenger" depart="310.86" departLane="best" departSpeed="max" from="52975065#0" to="364277016"/>
    <trip id="veh294" type="veh_passenger" depart="312.99" departLane="best" departSpeed="max" from="245860218" to="1202002183"/>
    <trip id="veh295" type="veh_passenger" depart="314.05" departLane="best" departSpeed="max" from="38732828" to="599001654"/>
    <trip id="veh299" type="veh_passenger" depart="318.31" departLane="best" departSpeed="max" from="245860218" to="1202002183"/>
    <trip id="veh300" type="veh_passenger" depart="319.37" departLane="best" departSpeed="max" from="210635089" to="20865896"/>
    <trip id="veh301" type="veh_passenger" depart="320.44" departLane="best" departSpeed="max" from="210635089" to="103600896"/>
    <trip id="veh303" type="veh_passenger" depart="322.57" departLane="best" departSpeed="max" from="967586401" to="38732991"/>
    <trip id="veh304" type="veh_passenger" depart="323.63" departLane="best" departSpeed="max" from="419728167" to="1202002183"/>
    <trip id="veh305" type="veh_passenger" depart="324.70" departLane="best" departSpeed="max" from="599001677" to="38732879"/>
    <trip id="veh307" type="veh_passenger" depart="326.82" departLane="best" departSpeed="max" from="38732336" to="38732306"/>
    <trip id="veh308" type="veh_passenger" depart="327.89" departLane="best" departSpeed="max" from="210635089" to="106105133"/>
    <trip id="veh309" type="veh_passenger" depart="328.95" departLane="best" departSpeed="max" from="96167787" to="38732792"/>
    <trip id="veh313" type="veh_passenger" depart="333.21" departLane="best" departSpeed="max" from="38732877" to="364277015"/>
    <trip id="veh314" type="veh_passenger" depart="334.28" departLane="best" departSpeed="max" from="967586401" to="1202002183"/>
    <trip id="veh315" type="veh_passenger" depart="335.34" departLane="best" departSpeed="max" from="52975067" to="38733501"/>
    <trip id="veh316" type="veh_passenger" depart="336.41" departLane="best" departSpeed="max" from="52975067" to="20865896"/>
    <trip id="veh320" type="veh_passenger" depart="340.66" departLane="best" departSpeed="max" from="38733159" to="38733501"/>
    <trip id="veh321" type="veh_passenger" depart="341.73" departLane="best" departSpeed="max" from="52975065#0" to="909636473"/>
    <trip id="veh324" type="veh_passenger" depart="344.92" departLane="best" departSpeed="max" from="210635089" to="106105133"/>
    <trip id="veh326" type="veh_passenger" depart="347.05" departLane="best" departSpeed="max" from="38733011" to="364277015"/>
    <trip id="veh327" type="veh_passenger" depart="348.12" departLane="best" departSpeed="max" from="245860218" to="52975046"/>
    <trip id="veh329" type="veh_passenger" depart="350.25" departLane="best" departSpeed="max" from="419728161" to="909636473"/>
    <trip id="veh330" type="veh_passenger" depart="351.31" departLane="best" departSpeed="max" from="52975067" to="423174996#0"/>
    <trip id="veh331" type="veh_passenger" depart="352.37" departLane="best" departSpeed="max" from="38733271" to="909636473"/>
    <trip id="veh333" type="veh_passenger" depart="354.50" departLane="best" departSpeed="max" from="38733212" to="909636473"/>
    <trip id="veh334" type="veh_passenger" depart="355.57" departLane="best" departSpeed="max" from="599001677" to="106105133"/>
    <trip id="veh335" type="veh_passenger" depart="356.63" departLane="best" departSpeed="max" from="210635089" to="364277015"/>
    <trip id="veh336" type="veh_passenger" depart="357.70" departLane="best" departSpeed="max" from="52975065#0" to="38733191"/>
    <trip id="veh337" type="veh_passenger" depart="358.76" departLane="best" departSpeed="max" from="245860218" to="1202002183"/>
    <trip id="veh338" type="veh_passenger" depart="359.83" departLane="best" departSpeed="max" from="419728161" to="52975046"/>
    <trip id="veh339" type="veh_passenger" depart="360.89" departLane="best" departSpeed="max" from="96167787" to="38732879"/>
    <trip id="veh341" type="veh_passenger" depart="363.02" departLane="best" departSpeed="max" from="103601005" to="38732306"/>
    <trip id="veh344" type="veh_passenger" depart="366.21" departLane="best" departSpeed="max" from="599001677" to="38733191"/>
    <trip id="veh347" type="veh_passenger" depart="369.41" departLane="best" departSpeed="max" from="103601005" to="599001654"/>
    <trip id="veh353" type="veh_passenger" depart="375.80" departLane="best" departSpeed="max" from="38733271" to="909636473"/>
    <trip id="veh354" type="veh_passenger" depart="376.86" departLane="best" departSpeed="max" from="364277014" to="52975046"/>
    <trip id="veh355" type="veh_passenger" depart="377.92" departLane="best" departSpeed="max" from="245860218" to="909636473"/>
    <trip id="veh356" type="veh_passenger" depart="378.99" departLane="best" departSpeed="max" from="560218461" to="38732991"/>
    <trip id="veh358" type="veh_passenger" depart="381.12" departLane="best" departSpeed="max" from="245860218" to="96167788"/>
    <trip id="veh360" type="veh_passenger" depart="383.25" departLane="best" departSpeed="max" from="967586401" to="423174996#0"/>
    <trip id="veh362" type="veh_passenger" depart="385.38" departLane="best" departSpeed="max" from="210635089" to="38732024"/>
    <trip id="veh364" type="veh_passenger" depart="387.51" departLane="best" departSpeed="max" from="38732877" to="909636473"/>
    <trip id="veh368" type="veh_passenger" depart="391.76" departLane="best" departSpeed="max" from="210635089" to="38732991"/>
    <trip id="veh369" type="veh_passenger" depart="392.83" departLane="best" departSpeed="max" from="38732877" to="1202002183"/>
    <trip id="veh370" type="veh_passenger" depart="393.89" departLane="best" departSpeed="max" from="967586401" to="909636473"/>
    <trip id="veh372" type="veh_passenger" depart="396.02" departLane="best" departSpeed="max" from="599001677" to="38732879"/>
    <trip id="veh374" type="veh_passenger" depart="398.15" departLane="best" departSpeed="max" from="245860218" to="909636473"/>
    <trip id="veh375" type="veh_passenger" depart="399.22" departLane="best" departSpeed="max" from="967586401" to="20865896"/>
    <trip id="veh377" type="veh_passenger" depart="401.34" departLane="best" departSpeed="max" from="907637047" to="38732879"/>
    <trip id="veh379" type="veh_passenger" depart="403.47" departLane="best" departSpeed="max" from="245860218" to="909506831"/>
    <trip id="veh381" type="veh_passenger" depart="405.60" departLane="best" departSpeed="max" from="38732807" to="909506831"/>
    <trip id="veh382" type="veh_passenger" depart="406.67" departLane="best" departSpeed="max" from="245860218" to="364277015"/>
    <trip id="veh386" type="veh_passenger" depart="410.93" departLane="best" departSpeed="max" from="38732877" to="38732991"/>
    <trip id="veh388" type="veh_passenger" depart="413.06" departLane="best" departSpeed="max" from="210635089" to="52975046"/>
    <trip id="veh390" type="veh_passenger" depart="415.18" departLane="best" departSpeed="max" from="52975067" to="103600933"/>
    <trip id="veh391" type="veh_passenger" depart="416.25" departLane="best" departSpeed="max" from="52975065#0" to="52975046"/>
    <trip id="veh394" type="veh_passenger" depart="419.44" departLane="best" departSpeed="max" from="967586401" to="38732879"/>
    <trip id="veh395" type="veh_passenger" depart="420.51" departLane="best" departSpeed="max" from="103601005" to="38732879"/>
    <trip id="veh396" type="veh_passenger" depart="421.57" departLane="best" departSpeed="max" from="38733011" to="909636473"/>
    <trip id="veh402" type="veh_passenger" depart="427.96" departLane="best" departSpeed="max" from="364277014" to="52975046"/>
    <trip id="veh403" type="veh_passenger" depart="429.02" departLane="best" departSpeed="max" from="38733212" to="909636473"/>