<?xml version="1.0" encoding="UTF-8"?>

<!-- generated on 2024-07-11 09:36:07 by Eclipse SUMO netedit Version 1.19.0
<configuration xmlns:xsi="http://www.w3.org/2001/XMLSchema-instance" xsi:noNamespaceSchemaLocation="http://sumo.dlr.de/xsd/neteditConfiguration.xsd">

    <input>
        <sumo-net-file value="D:\Research_Projects\SUMO_TrafficNetwork\Network_Files_1\osm.net.xml"/>
    </input>

    <output>
        <output-file value="D:\Research_Projects\SUMO_TrafficNetwork\Network_Files_1\osm.net.xml"/>
        <output.street-names value="true"/>
    </output>

    <processing>
        <geometry.min-radius.fix.railways value="false"/>
        <geometry.max-grade.fix value="false"/>
        <offset.disable-normalization value="true"/>
        <lefthand value="0"/>
    </processing>

    <junctions>
        <no-turnarounds value="true"/>
        <junctions.corner-detail value="5"/>
        <junctions.limit-turn-speed value="5.50"/>
        <rectangular-lane-cut value="0"/>
    </junctions>

    <pedestrian>
        <walkingareas value="0"/>
    </pedestrian>

</configuration>
-->

<net version="1.16" junctionCornerDetail="5" limitTurnSpeed="5.50" xmlns:xsi="http://www.w3.org/2001/XMLSchema-instance" xsi:noNamespaceSchemaLocation="http://sumo.dlr.de/xsd/net_file.xsd">

    <location netOffset="-379473.88,-3772925.31" convBoundary="0.00,0.00,10557.82,7958.23" origBoundary="-118.307480,34.090877,-118.192823,34.171513" projParameter="+proj=utm +zone=11 +ellps=WGS84 +datum=WGS84 +units=m +no_defs"/>

    <type id="highway.motorway" priority="14" numLanes="2" speed="39.44" allow="private emergency authority army vip passenger hov taxi bus coach delivery truck trailer motorcycle evehicle custom1 custom2" oneway="1"/>
    <type id="highway.motorway_link" priority="9" numLanes="1" speed="22.22" allow="private emergency authority army vip passenger hov taxi bus coach delivery truck trailer motorcycle evehicle custom1 custom2" oneway="1"/>

    <edge id=":1002572925-AddedOffRampNode_0" function="internal">
        <lane id=":1002572925-AddedOffRampNode_0_0" index="0" allow="private emergency authority army vip passenger hov taxi bus coach delivery truck trailer motorcycle evehicle custom1 custom2" speed="29.06" length="8.13" shape="7702.53,6115.21 7700.35,6116.46 7699.24,6118.00 7698.13,6119.53 7695.96,6120.79"/>
        <lane id=":1002572925-AddedOffRampNode_0_1" index="1" allow="private emergency authority army vip passenger hov taxi bus coach delivery truck trailer motorcycle evehicle custom1 custom2" speed="29.06" length="8.13" shape="7702.53,6115.21 7694.94,6117.75"/>
        <lane id=":1002572925-AddedOffRampNode_0_2" index="2" allow="private emergency authority army vip passenger hov taxi bus coach delivery truck trailer motorcycle evehicle custom1 custom2" speed="29.06" length="8.13" shape="7701.51,6112.17 7693.92,6114.72"/>
        <lane id=":1002572925-AddedOffRampNode_0_3" index="3" allow="private emergency authority army vip passenger hov taxi bus coach delivery truck trailer motorcycle evehicle custom1 custom2" speed="29.06" length="8.13" shape="7700.49,6109.14 7692.91,6111.68"/>
        <lane id=":1002572925-AddedOffRampNode_0_4" index="4" allow="private emergency authority army vip passenger hov taxi bus coach delivery truck trailer motorcycle evehicle custom1 custom2" speed="29.06" length="8.13" shape="7699.48,6106.10 7691.89,6108.65"/>
        <lane id=":1002572925-AddedOffRampNode_0_5" index="5" allow="private emergency authority army vip passenger hov taxi bus coach delivery truck trailer motorcycle evehicle custom1 custom2" speed="29.06" length="8.13" shape="7698.46,6103.07 7690.88,6105.61"/>
    </edge>
    <edge id=":10201104587_0" function="internal">
        <lane id=":10201104587_0_0" index="0" allow="private emergency authority army vip passenger hov taxi bus coach delivery truck trailer motorcycle evehicle custom1 custom2" speed="22.22" length="8.26" shape="5921.31,7165.35 5919.41,7166.84 5918.35,7168.14 5917.39,7169.56 5915.76,7171.39"/>
    </edge>
    <edge id=":11931767492_0" function="internal">
        <lane id=":11931767492_0_0" index="0" allow="private emergency authority army vip passenger hov taxi bus coach delivery truck trailer motorcycle evehicle custom1 custom2" speed="29.06" length="0.30" shape="4859.48,550.61 4859.64,550.86"/>
        <lane id=":11931767492_0_1" index="1" allow="private emergency authority army vip passenger hov taxi bus coach delivery truck trailer motorcycle evehicle custom1 custom2" speed="29.06" length="0.30" shape="4856.80,552.37 4856.97,552.62"/>
        <lane id=":11931767492_0_2" index="2" allow="private emergency authority army vip passenger hov taxi bus coach delivery truck trailer motorcycle evehicle custom1 custom2" speed="29.06" length="0.30" shape="4854.13,554.12 4854.29,554.38"/>
        <lane id=":11931767492_0_3" index="3" allow="private emergency authority army vip passenger hov taxi bus coach delivery truck trailer motorcycle evehicle custom1 custom2" speed="29.06" length="0.30" shape="4851.45,555.88 4851.62,556.13"/>
        <lane id=":11931767492_0_4" index="4" allow="private emergency authority army vip passenger hov taxi bus coach delivery truck trailer motorcycle evehicle custom1 custom2" speed="29.06" length="0.30" shape="4848.78,557.64 4848.94,557.89"/>
    </edge>
    <edge id=":1233732679_0" function="internal">
        <lane id=":1233732679_0_0" index="0" allow="private emergency authority army vip passenger hov taxi bus coach delivery truck trailer motorcycle evehicle custom1 custom2" speed="25.64" length="4.53" shape="904.36,7247.12 905.68,7246.86 906.59,7246.72 907.51,7246.62 908.85,7246.50"/>
    </edge>
    <edge id=":1233732679_1" function="internal">
        <lane id=":1233732679_1_0" index="0" allow="private emergency authority army vip passenger hov taxi bus coach delivery truck trailer motorcycle evehicle custom1 custom2" speed="29.06" length="5.15" shape="905.01,7250.25 906.37,7249.46 906.91,7248.22 907.46,7246.99 908.82,7246.20"/>
        <lane id=":1233732679_1_1" index="1" allow="private emergency authority army vip passenger hov taxi bus coach delivery truck trailer motorcycle evehicle custom1 custom2" speed="29.06" length="5.15" shape="905.65,7253.39 906.92,7252.61 907.39,7251.39 907.86,7250.17 909.13,7249.40"/>
        <lane id=":1233732679_1_2" index="2" allow="private emergency authority army vip passenger hov taxi bus coach delivery truck trailer motorcycle evehicle custom1 custom2" speed="29.06" length="5.15" shape="906.30,7256.52 909.44,7252.60"/>
        <lane id=":1233732679_1_3" index="3" allow="private emergency authority army vip passenger hov taxi bus coach delivery truck trailer motorcycle evehicle custom1 custom2" speed="29.06" length="5.15" shape="906.94,7259.65 909.75,7255.81"/>
        <lane id=":1233732679_1_4" index="4" allow="private emergency authority army vip passenger hov taxi bus coach delivery truck trailer motorcycle evehicle custom1 custom2" speed="29.06" length="5.15" shape="907.59,7262.79 910.05,7259.01"/>
    </edge>
    <edge id=":123461838-AddedOffRampNode_0" function="internal">
        <lane id=":123461838-AddedOffRampNode_0_0" index="0" allow="private emergency authority army vip passenger hov taxi bus coach delivery truck trailer motorcycle evehicle custom1 custom2" speed="29.06" length="8.16" shape="7361.91,5670.33 7363.00,5672.59 7364.44,5673.82 7365.88,5675.04 7366.96,5677.31"/>
        <lane id=":123461838-AddedOffRampNode_0_1" index="1" allow="private emergency authority army vip passenger hov taxi bus coach delivery truck trailer motorcycle evehicle custom1 custom2" speed="29.06" length="8.16" shape="7361.91,5670.33 7363.86,5678.09"/>
        <lane id=":123461838-AddedOffRampNode_0_2" index="2" allow="private emergency authority army vip passenger hov taxi bus coach delivery truck trailer motorcycle evehicle custom1 custom2" speed="29.06" length="8.16" shape="7358.81,5671.11 7360.75,5678.87"/>
        <lane id=":123461838-AddedOffRampNode_0_3" index="3" allow="private emergency authority army vip passenger hov taxi bus coach delivery truck trailer motorcycle evehicle custom1 custom2" speed="29.06" length="8.16" shape="7355.71,5671.88 7357.65,5679.64"/>
        <lane id=":123461838-AddedOffRampNode_0_4" index="4" allow="private emergency authority army vip passenger hov taxi bus coach delivery truck trailer motorcycle evehicle custom1 custom2" speed="29.06" length="8.16" shape="7352.60,5672.66 7354.55,5680.42"/>
    </edge>
    <edge id=":123461841-AddedOffRampNode_0" function="internal">
        <lane id=":123461841-AddedOffRampNode_0_0" index="0" allow="private emergency authority army vip passenger hov taxi bus coach delivery truck trailer motorcycle evehicle custom1 custom2" speed="29.06" length="8.16" shape="7244.74,3923.92 7244.45,3921.42 7243.49,3919.79 7242.53,3918.16 7242.24,3915.67"/>
        <lane id=":123461841-AddedOffRampNode_0_1" index="1" allow="private emergency authority army vip passenger hov taxi bus coach delivery truck trailer motorcycle evehicle custom1 custom2" speed="29.06" length="8.16" shape="7244.74,3923.92 7245.43,3915.95"/>
        <lane id=":123461841-AddedOffRampNode_0_2" index="2" allow="private emergency authority army vip passenger hov taxi bus coach delivery truck trailer motorcycle evehicle custom1 custom2" speed="29.06" length="8.16" shape="7247.93,3924.20 7248.62,3916.23"/>
        <lane id=":123461841-AddedOffRampNode_0_3" index="3" allow="private emergency authority army vip passenger hov taxi bus coach delivery truck trailer motorcycle evehicle custom1 custom2" speed="29.06" length="8.16" shape="7251.11,3924.47 7251.81,3916.50"/>
        <lane id=":123461841-AddedOffRampNode_0_4" index="4" allow="private emergency authority army vip passenger hov taxi bus coach delivery truck trailer motorcycle evehicle custom1 custom2" speed="29.06" length="8.16" shape="7254.30,3924.75 7254.99,3916.78"/>
    </edge>
    <edge id=":123461844-AddedOffRampNode_0" function="internal">
        <lane id=":123461844-AddedOffRampNode_0_0" index="0" allow="private emergency authority army vip passenger hov taxi bus coach delivery truck trailer motorcycle evehicle custom1 custom2" speed="29.06" length="8.16" shape="4839.53,526.06 4841.30,527.84 4843.06,528.52 4844.82,529.20 4846.59,530.99"/>
        <lane id=":123461844-AddedOffRampNode_0_1" index="1" allow="private emergency authority army vip passenger hov taxi bus coach delivery truck trailer motorcycle evehicle custom1 custom2" speed="29.06" length="8.16" shape="4839.53,526.06 4843.92,532.74"/>
        <lane id=":123461844-AddedOffRampNode_0_2" index="2" allow="private emergency authority army vip passenger hov taxi bus coach delivery truck trailer motorcycle evehicle custom1 custom2" speed="29.06" length="8.16" shape="4836.86,527.81 4841.24,534.50"/>
        <lane id=":123461844-AddedOffRampNode_0_3" index="3" allow="private emergency authority army vip passenger hov taxi bus coach delivery truck trailer motorcycle evehicle custom1 custom2" speed="29.06" length="8.16" shape="4834.18,529.57 4838.57,536.26"/>
        <lane id=":123461844-AddedOffRampNode_0_4" index="4" allow="private emergency authority army vip passenger hov taxi bus coach delivery truck trailer motorcycle evehicle custom1 custom2" speed="29.06" length="8.16" shape="4831.50,531.32 4835.89,538.01"/>
    </edge>
    <edge id=":123461888-AddedOffRampNode_0" function="internal">
        <lane id=":123461888-AddedOffRampNode_0_0" index="0" allow="private emergency authority army vip passenger hov taxi bus coach delivery truck trailer motorcycle evehicle custom1 custom2" speed="29.06" length="8.27" shape="5240.99,1912.70 5240.08,1910.33 5238.79,1908.94 5237.56,1907.53 5236.80,1905.14"/>
        <lane id=":123461888-AddedOffRampNode_0_1" index="1" allow="private emergency authority army vip passenger hov taxi bus coach delivery truck trailer motorcycle evehicle custom1 custom2" speed="29.06" length="8.27" shape="5240.99,1912.70 5239.98,1904.77"/>
        <lane id=":123461888-AddedOffRampNode_0_2" index="2" allow="private emergency authority army vip passenger hov taxi bus coach delivery truck trailer motorcycle evehicle custom1 custom2" speed="29.06" length="8.27" shape="5244.17,1912.33 5243.16,1904.40"/>
    </edge>
    <edge id=":123570156-AddedOffRampNode_0" function="internal">
        <lane id=":123570156-AddedOffRampNode_0_0" index="0" allow="private emergency authority army vip passenger hov taxi bus coach delivery truck trailer motorcycle evehicle custom1 custom2" speed="29.06" length="8.11" shape="3518.94,7192.04 3516.43,7191.88 3514.66,7192.53 3512.89,7193.19 3510.38,7193.02"/>
        <lane id=":123570156-AddedOffRampNode_0_1" index="1" allow="private emergency authority army vip passenger hov taxi bus coach delivery truck trailer motorcycle evehicle custom1 custom2" speed="29.06" length="8.11" shape="3518.94,7192.04 3511.22,7189.94"/>
        <lane id=":123570156-AddedOffRampNode_0_2" index="2" allow="private emergency authority army vip passenger hov taxi bus coach delivery truck trailer motorcycle evehicle custom1 custom2" speed="29.06" length="8.11" shape="3519.78,7188.95 3512.06,7186.85"/>
        <lane id=":123570156-AddedOffRampNode_0_3" index="3" allow="private emergency authority army vip passenger hov taxi bus coach delivery truck trailer motorcycle evehicle custom1 custom2" speed="29.06" length="8.11" shape="3520.62,7185.86 3512.90,7183.76"/>
        <lane id=":123570156-AddedOffRampNode_0_4" index="4" allow="private emergency authority army vip passenger hov taxi bus coach delivery truck trailer motorcycle evehicle custom1 custom2" speed="29.06" length="8.11" shape="3521.46,7182.78 3513.74,7180.67"/>
        <lane id=":123570156-AddedOffRampNode_0_5" index="5" allow="private emergency authority army vip passenger hov taxi bus coach delivery truck trailer motorcycle evehicle custom1 custom2" speed="29.06" length="8.11" shape="3522.30,7179.69 3514.58,7177.58"/>
        <lane id=":123570156-AddedOffRampNode_0_6" index="6" allow="private emergency authority army vip passenger hov taxi bus coach delivery truck trailer motorcycle evehicle custom1 custom2" speed="29.06" length="8.11" shape="3523.14,7176.60 3515.42,7174.50"/>
    </edge>
    <edge id=":123770882_0" function="internal">
        <lane id=":123770882_0_0" index="0" allow="private emergency authority army vip passenger hov taxi bus coach delivery truck trailer motorcycle evehicle custom1 custom2" speed="22.22" length="8.46" shape="6701.19,3001.94 6703.61,3002.60 6705.49,3002.34 6707.35,3002.10 6709.73,3002.85"/>
        <lane id=":123770882_0_1" index="1" allow="private emergency authority army vip passenger hov taxi bus coach delivery truck trailer motorcycle evehicle custom1 custom2" speed="22.22" length="8.46" shape="6701.19,3001.94 6708.18,3005.64"/>
        <lane id=":123770882_0_2" index="2" allow="private emergency authority army vip passenger hov taxi bus coach delivery truck trailer motorcycle evehicle custom1 custom2" speed="22.22" length="8.46" shape="6701.19,3001.94 6703.11,3003.47 6703.93,3005.13 6704.74,3006.82 6706.62,3008.44"/>
    </edge>
    <edge id=":124100069-AddedOffRampNode_0" function="internal">
        <lane id=":124100069-AddedOffRampNode_0_0" index="0" allow="private emergency authority army vip passenger hov taxi bus coach delivery truck trailer motorcycle evehicle custom1 custom2" speed="29.06" length="8.13" shape="2850.95,5238.65 2850.88,5241.16 2851.60,5242.91 2852.31,5244.66 2852.24,5247.17"/>
        <lane id=":124100069-AddedOffRampNode_0_1" index="1" allow="private emergency authority army vip passenger hov taxi bus coach delivery truck trailer motorcycle evehicle custom1 custom2" speed="29.06" length="8.13" shape="2850.95,5238.65 2849.12,5246.44"/>
        <lane id=":124100069-AddedOffRampNode_0_2" index="2" allow="private emergency authority army vip passenger hov taxi bus coach delivery truck trailer motorcycle evehicle custom1 custom2" speed="29.06" length="8.13" shape="2847.84,5237.92 2846.01,5245.71"/>
        <lane id=":124100069-AddedOffRampNode_0_3" index="3" allow="private emergency authority army vip passenger hov taxi bus coach delivery truck trailer motorcycle evehicle custom1 custom2" speed="29.06" length="8.13" shape="2844.72,5237.19 2842.89,5244.98"/>
        <lane id=":124100069-AddedOffRampNode_0_4" index="4" allow="private emergency authority army vip passenger hov taxi bus coach delivery truck trailer motorcycle evehicle custom1 custom2" speed="29.06" length="8.13" shape="2841.61,5236.46 2839.77,5244.25"/>
        <lane id=":124100069-AddedOffRampNode_0_5" index="5" allow="private emergency authority army vip passenger hov taxi bus coach delivery truck trailer motorcycle evehicle custom1 custom2" speed="29.06" length="8.13" shape="2838.49,5235.73 2836.66,5243.52"/>
    </edge>
    <edge id=":1340586219_0" function="internal">
        <lane id=":1340586219_0_0" index="0" allow="private emergency authority army vip passenger hov taxi bus coach delivery truck trailer motorcycle evehicle custom1 custom2" speed="34.25" length="0.30" shape="2976.44,7043.71 2976.15,7043.63"/>
        <lane id=":1340586219_0_1" index="1" allow="private emergency authority army vip passenger hov taxi bus coach delivery truck trailer motorcycle evehicle custom1 custom2" speed="34.25" length="0.30" shape="2977.26,7040.61 2976.97,7040.54"/>
        <lane id=":1340586219_0_2" index="2" allow="private emergency authority army vip passenger hov taxi bus coach delivery truck trailer motorcycle evehicle custom1 custom2" speed="34.25" length="0.30" shape="2978.09,7037.52 2977.80,7037.45"/>
        <lane id=":1340586219_0_3" index="3" allow="private emergency authority army vip passenger hov taxi bus coach delivery truck trailer motorcycle evehicle custom1 custom2" speed="34.25" length="0.30" shape="2978.91,7034.43 2978.63,7034.35"/>
    </edge>
    <edge id=":1376737813_0" function="internal">
        <lane id=":1376737813_0_0" index="0" allow="private emergency authority army vip passenger hov taxi bus coach delivery truck trailer motorcycle evehicle custom1 custom2" speed="29.06" length="8.21" shape="4657.93,289.90 4659.70,291.53 4661.17,292.38 4662.64,293.22 4664.41,294.85"/>
        <lane id=":1376737813_0_1" index="1" allow="private emergency authority army vip passenger hov taxi bus coach delivery truck trailer motorcycle evehicle custom1 custom2" speed="29.06" length="8.21" shape="4657.93,289.90 4659.33,291.86 4659.97,293.43 4660.62,295.00 4662.01,296.96"/>
        <lane id=":1376737813_0_2" index="2" allow="private emergency authority army vip passenger hov taxi bus coach delivery truck trailer motorcycle evehicle custom1 custom2" speed="29.06" length="8.21" shape="4655.53,292.01 4656.92,293.98 4657.57,295.54 4658.21,297.11 4659.61,299.08"/>
    </edge>
    <edge id=":1376737817_0" function="internal">
        <lane id=":1376737817_0_0" index="0" allow="private emergency authority army vip passenger hov taxi bus coach delivery truck trailer motorcycle evehicle custom1 custom2" speed="29.06" length="9.62" shape="4816.18,537.54 4814.29,535.82 4812.19,535.54 4810.04,535.29 4808.01,533.66"/>
        <lane id=":1376737817_0_1" index="1" allow="private emergency authority army vip passenger hov taxi bus coach delivery truck trailer motorcycle evehicle custom1 custom2" speed="29.06" length="9.62" shape="4818.93,535.91 4817.01,534.13 4814.89,533.81 4812.71,533.53 4810.65,531.84"/>
        <lane id=":1376737817_0_2" index="2" allow="private emergency authority army vip passenger hov taxi bus coach delivery truck trailer motorcycle evehicle custom1 custom2" speed="29.06" length="9.62" shape="4821.69,534.27 4819.73,532.45 4817.58,532.09 4815.38,531.76 4813.29,530.03"/>
    </edge>
    <edge id=":1376737820_0" function="internal">
        <lane id=":1376737820_0_0" index="0" allow="private emergency authority army vip passenger hov taxi bus coach delivery truck trailer motorcycle evehicle custom1 custom2" speed="25.64" length="3.07" shape="7194.92,4243.38 7195.37,4240.34"/>
    </edge>
    <edge id=":1376737820_1" function="internal">
        <lane id=":1376737820_1_0" index="0" allow="private emergency authority army vip passenger hov taxi bus coach delivery truck trailer motorcycle evehicle custom1 custom2" speed="29.06" length="2.95" shape="7198.10,4243.82 7198.57,4240.83"/>
        <lane id=":1376737820_1_1" index="1" allow="private emergency authority army vip passenger hov taxi bus coach delivery truck trailer motorcycle evehicle custom1 custom2" speed="29.06" length="2.95" shape="7201.27,4244.25 7201.74,4241.31"/>
        <lane id=":1376737820_1_2" index="2" allow="private emergency authority army vip passenger hov taxi bus coach delivery truck trailer motorcycle evehicle custom1 custom2" speed="29.06" length="2.95" shape="7204.44,4244.68 7204.91,4241.80"/>
        <lane id=":1376737820_1_3" index="3" allow="private emergency authority army vip passenger hov taxi bus coach delivery truck trailer motorcycle evehicle custom1 custom2" speed="29.06" length="2.95" shape="7207.61,4245.11 7208.07,4242.28"/>
    </edge>
    <edge id=":1377536905_0" function="internal">
        <lane id=":1377536905_0_0" index="0" allow="private emergency authority army vip passenger hov taxi bus coach delivery truck trailer motorcycle evehicle custom1 custom2" speed="34.25" length="0.28" shape="1915.78,6949.22 1915.97,6949.10"/>
        <lane id=":1377536905_0_1" index="1" allow="private emergency authority army vip passenger hov taxi bus coach delivery truck trailer motorcycle evehicle custom1 custom2" speed="34.25" length="0.28" shape="1917.51,6951.92 1917.75,6951.76"/>
        <lane id=":1377536905_0_2" index="2" allow="private emergency authority army vip passenger hov taxi bus coach delivery truck trailer motorcycle evehicle custom1 custom2" speed="34.25" length="0.28" shape="1919.24,6954.61 1919.53,6954.42"/>
    </edge>
    <edge id=":1377536908_0" function="internal">
        <lane id=":1377536908_0_0" index="0" allow="private emergency authority army vip passenger hov taxi bus coach delivery truck trailer motorcycle evehicle custom1 custom2" speed="34.25" length="8.21" shape="2834.80,7002.52 2832.42,7002.14 2830.73,7002.26 2829.04,7002.37 2826.66,7001.99"/>
        <lane id=":1377536908_0_1" index="1" allow="private emergency authority army vip passenger hov taxi bus coach delivery truck trailer motorcycle evehicle custom1 custom2" speed="34.25" length="8.21" shape="2835.63,6999.43 2833.25,6999.05 2831.56,6999.17 2829.87,6999.28 2827.49,6998.90"/>
        <lane id=":1377536908_0_2" index="2" allow="private emergency authority army vip passenger hov taxi bus coach delivery truck trailer motorcycle evehicle custom1 custom2" speed="34.25" length="8.21" shape="2836.45,6996.34 2834.08,6995.96 2832.39,6996.08 2830.70,6996.19 2828.32,6995.81"/>
    </edge>
    <edge id=":1377536917_0" function="internal">
        <lane id=":1377536917_0_0" index="0" allow="private emergency authority army vip passenger hov taxi bus coach delivery truck trailer motorcycle evehicle custom1 custom2" speed="29.06" length="3.37" shape="3223.97,7116.25 3220.68,7115.34"/>
        <lane id=":1377536917_0_1" index="1" allow="private emergency authority army vip passenger hov taxi bus coach delivery truck trailer motorcycle evehicle custom1 custom2" speed="29.06" length="3.37" shape="3224.77,7113.15 3221.57,7112.27"/>
    </edge>
    <edge id=":1377536917_2" function="internal">
        <lane id=":1377536917_2_0" index="0" allow="private emergency authority army vip passenger hov taxi bus coach delivery truck trailer motorcycle evehicle custom1 custom2" speed="29.06" length="3.10" shape="3225.57,7110.05 3222.44,7109.23"/>
        <lane id=":1377536917_2_1" index="1" allow="private emergency authority army vip passenger hov taxi bus coach delivery truck trailer motorcycle evehicle custom1 custom2" speed="29.06" length="3.10" shape="3226.38,7106.96 3223.33,7106.15"/>
        <lane id=":1377536917_2_2" index="2" allow="private emergency authority army vip passenger hov taxi bus coach delivery truck trailer motorcycle evehicle custom1 custom2" speed="29.06" length="3.10" shape="3227.18,7103.86 3224.22,7103.08"/>
        <lane id=":1377536917_2_3" index="3" allow="private emergency authority army vip passenger hov taxi bus coach delivery truck trailer motorcycle evehicle custom1 custom2" speed="29.06" length="3.10" shape="3227.98,7100.76 3225.11,7100.00"/>
    </edge>
    <edge id=":1377536919_0" function="internal">
        <lane id=":1377536919_0_0" index="0" allow="private emergency authority army vip passenger hov taxi bus coach delivery truck trailer motorcycle evehicle custom1 custom2" speed="29.06" length="8.81" shape="1835.06,7200.88 1832.56,7201.10 1830.77,7200.48 1828.98,7199.87 1826.48,7200.09"/>
        <lane id=":1377536919_0_1" index="1" allow="private emergency authority army vip passenger hov taxi bus coach delivery truck trailer motorcycle evehicle custom1 custom2" speed="29.06" length="8.81" shape="1834.15,7197.81 1831.65,7198.03 1829.86,7197.42 1828.07,7196.80 1825.57,7197.03"/>
        <lane id=":1377536919_0_2" index="2" allow="private emergency authority army vip passenger hov taxi bus coach delivery truck trailer motorcycle evehicle custom1 custom2" speed="29.06" length="8.81" shape="1833.24,7194.74 1830.73,7194.97 1828.94,7194.35 1827.16,7193.73 1824.65,7193.96"/>
        <lane id=":1377536919_0_3" index="3" allow="private emergency authority army vip passenger hov taxi bus coach delivery truck trailer motorcycle evehicle custom1 custom2" speed="29.06" length="8.81" shape="1832.32,7191.68 1829.82,7191.90 1828.03,7191.28 1826.24,7190.67 1823.74,7190.89"/>
    </edge>
    <edge id=":1377536922_0" function="internal">
        <lane id=":1377536922_0_0" index="0" allow="private emergency authority army vip passenger hov taxi bus coach delivery truck trailer motorcycle evehicle custom1 custom2" speed="29.06" length="8.21" shape="1383.16,7222.69 1380.77,7222.96 1379.18,7223.53 1377.59,7224.10 1375.20,7224.39"/>
        <lane id=":1377536922_0_1" index="1" allow="private emergency authority army vip passenger hov taxi bus coach delivery truck trailer motorcycle evehicle custom1 custom2" speed="29.06" length="8.21" shape="1383.13,7219.49 1380.74,7219.76 1379.14,7220.33 1377.55,7220.90 1375.16,7221.19"/>
        <lane id=":1377536922_0_2" index="2" allow="private emergency authority army vip passenger hov taxi bus coach delivery truck trailer motorcycle evehicle custom1 custom2" speed="29.06" length="8.21" shape="1383.09,7216.29 1380.70,7216.56 1379.10,7217.13 1377.51,7217.70 1375.11,7217.99"/>
        <lane id=":1377536922_0_3" index="3" allow="private emergency authority army vip passenger hov taxi bus coach delivery truck trailer motorcycle evehicle custom1 custom2" speed="29.06" length="8.21" shape="1383.06,7213.09 1380.66,7213.36 1379.06,7213.93 1377.46,7214.50 1375.07,7214.79"/>
        <lane id=":1377536922_0_4" index="4" allow="private emergency authority army vip passenger hov taxi bus coach delivery truck trailer motorcycle evehicle custom1 custom2" speed="29.06" length="8.21" shape="1383.06,7213.09 1380.65,7212.86 1379.04,7212.33 1377.43,7211.80 1375.02,7211.59"/>
    </edge>
    <edge id=":138307362-AddedOnRampNode_0" function="internal">
        <lane id=":138307362-AddedOnRampNode_0_0" index="0" allow="private emergency authority army vip passenger hov taxi bus coach delivery truck trailer motorcycle evehicle custom1 custom2" speed="29.06" length="8.09" width="6.20" shape="5258.94,1563.12 5259.23,1565.51 5259.79,1567.10 5260.35,1568.69 5260.64,1571.08"/>
        <lane id=":138307362-AddedOnRampNode_0_1" index="1" allow="private emergency authority army vip passenger hov taxi bus coach delivery truck trailer motorcycle evehicle custom1 custom2" speed="29.06" length="8.09" width="3.70" shape="5255.24,1563.22 5255.69,1571.21"/>
    </edge>
    <edge id=":13890125_0" function="internal">
        <lane id=":13890125_0_0" index="0" allow="private emergency authority army vip passenger hov taxi bus coach delivery truck trailer motorcycle evehicle custom1 custom2" speed="25.64" length="3.18" shape="3572.57,7206.65 3569.51,7205.80"/>
    </edge>
    <edge id=":13890125_1" function="internal">
        <lane id=":13890125_1_0" index="0" allow="private emergency authority army vip passenger hov taxi bus coach delivery truck trailer motorcycle evehicle custom1 custom2" speed="29.06" length="2.96" shape="3573.35,7203.49 3570.35,7202.71"/>
        <lane id=":13890125_1_1" index="1" allow="private emergency authority army vip passenger hov taxi bus coach delivery truck trailer motorcycle evehicle custom1 custom2" speed="29.06" length="2.96" shape="3574.12,7200.38 3571.19,7199.63"/>
        <lane id=":13890125_1_2" index="2" allow="private emergency authority army vip passenger hov taxi bus coach delivery truck trailer motorcycle evehicle custom1 custom2" speed="29.06" length="2.96" shape="3574.89,7197.28 3572.03,7196.54"/>
        <lane id=":13890125_1_3" index="3" allow="private emergency authority army vip passenger hov taxi bus coach delivery truck trailer motorcycle evehicle custom1 custom2" speed="29.06" length="2.96" shape="3575.66,7194.17 3572.87,7193.45"/>
        <lane id=":13890125_1_4" index="4" allow="private emergency authority army vip passenger hov taxi bus coach delivery truck trailer motorcycle evehicle custom1 custom2" speed="29.06" length="2.96" shape="3576.43,7191.07 3573.71,7190.36"/>
    </edge>
    <edge id=":13890126_0" function="internal">
        <lane id=":13890126_0_0" index="0" allow="private emergency authority army vip passenger hov taxi bus coach delivery truck trailer motorcycle evehicle custom1 custom2" speed="25.64" length="3.14" shape="5556.22,7293.74 5553.07,7293.64"/>
    </edge>
    <edge id=":13890126_1" function="internal">