<?xml version="1.0" encoding="UTF-8"?>

<!-- generated on 2024-05-24 14:45:44 by Eclipse SUMO netedit Version 1.19.0
-->

<routes xmlns:xsi="http://www.w3.org/2001/XMLSchema-instance" xsi:noNamespaceSchemaLocation="http://sumo.dlr.de/xsd/routes_file.xsd">
    <!-- Vehicles, persons and containers (sorted by depart) -->

    <!-- H15N in Total inflow 3400-->
    <flow id="15N_in-25N_out" begin="0.00" departLane="best" departSpeed="max" reroute="true" fromJunction="H15N_in" toJunction="H25N_out" end="28800.00" vehsPerHour="250"/>
    <flow id="15N_in-10E_out" begin="0.00" departLane="best" departSpeed="max" reroute="true" fromJunction="H15N_in" toJunction="H10E_out" end="28800.00" vehsPerHour="600"/>

<!--    <flow id="15N_in-25S_out" begin="0.00" departLane="best" departSpeed="max" reroute="true" fromJunction="H15N_in" toJunction="H25S_out" end="28800.00" vehsPerHour="500"/>-->
<!--    <flow id="15N_in-20E_out" begin="0.00" departLane="best" departSpeed="max" reroute="true" fromJunction="H15N_in" toJunction="H20E_out" end="28800.00" vehsPerHour="400"/>-->
<!--    <flow id="15N_in-15N_out" begin="0.00" departLane="best" departSpeed="max" reroute="true" fromJunction="H15N_in" toJunction="H15N_out" end="28800.00" vehsPerHour="400"/>-->
<!--    <flow id="15N_in-20W_out" begin="0.00" departLane="best" departSpeed="max" reroute="true" fromJunction="H15N_in" toJunction="H20W_out" end="28800.00" vehsPerHour="250"/>-->
<!--    <flow id="15N_in-10W_out" begin="0.00" departLane="best" departSpeed="max" reroute="true" fromJunction="H15N_in" toJunction="H10W_out" end="28800.00" vehsPerHour="150"/>-->

    <flow id="15N_in-10E_offR_1" begin="0.00" departLane="best" departSpeed="max" reroute="true" fromJunction="H15N_in" toJunction="H10E_offR_1" end="28800.00" vehsPerHour="80"/>
    <flow id="15N_in-10E_offR_2" begin="0.00" departLane="best" departSpeed="max" reroute="true" fromJunction="H15N_in" toJunction="H10E_offR_2" end="28800.00" vehsPerHour="70"/>
    <flow id="15N_in-10E_offR_3" begin="0.00" departLane="best" departSpeed="max" reroute="true" fromJunction="H15N_in" toJunction="H10E_offR_3" end="28800.00" vehsPerHour="60"/>
    <flow id="15N_in-10E_offR_4" begin="0.00" departLane="best" departSpeed="max" reroute="true" fromJunction="H15N_in" toJunction="H10E_offR_4" end="28800.00" vehsPerHour="70"/>
    <flow id="15N_in-10E_offR_5" begin="0.00" departLane="best" departSpeed="max" reroute="true" fromJunction="H15N_in" toJunction="H10E_offR_5" end="28800.00" vehsPerHour="60"/>

<!--    <flow id="15N_in-20E_offR_1" begin="0.00" departLane="best" departSpeed="max" reroute="true" fromJunction="H15N_in" toJunction="H20E_offR_1" end="28800.00" vehsPerHour="80"/>-->
<!--    <flow id="15N_in-20E_offR_2" begin="0.00" departLane="best" departSpeed="max" reroute="true" fromJunction="H15N_in" toJunction="H20E_offR_2" end="28800.00" vehsPerHour="80"/>-->

<!--    <flow id="15N_in-15N_offR_1" begin="0.00" departLane="best" departSpeed="max" reroute="true" fromJunction="H15N_in" toJunction="H15N_offR_1" end="28800.00" vehsPerHour="70"/>-->
<!--    <flow id="15N_in-15N_offR_2" begin="0.00" departLane="best" departSpeed="max" reroute="true" fromJunction="H15N_in" toJunction="H15N_offR_2" end="28800.00" vehsPerHour="70"/>-->

    <flow id="15N_in-25N_offR_1" begin="0.00" departLane="best" departSpeed="max" reroute="true" fromJunction="H15N_in" toJunction="H25N_offR_1" end="28800.00" vehsPerHour="50"/>
    <flow id="15N_in-25N_offR_2" begin="0.00" departLane="best" departSpeed="max" reroute="true" fromJunction="H15N_in" toJunction="H25N_offR_2" end="28800.00" vehsPerHour="50"/>
    <flow id="15N_in-25N_offR_3" begin="0.00" departLane="best" departSpeed="max" reroute="true" fromJunction="H15N_in" toJunction="H25N_offR_3" end="28800.00" vehsPerHour="50"/>
    <flow id="15N_in-25N_offR_4" begin="0.00" departLane="best" departSpeed="max" reroute="true" fromJunction="H15N_in" toJunction="H25N_offR_2" end="28800.00" vehsPerHour="60"/>

    <!-- H25N in Total inflow 3100 -->
    <flow id="25N_in-25N_out" begin="0.00" departLane="best" departSpeed="max" reroute="true" fromJunction="H25N_in" toJunction="H25N_out" end="28800.00" vehsPerHour="500"/>
    <flow id="25N_in-20W_out" begin="0.00" departLane="best" departSpeed="max" reroute="true" fromJunction="H25N_in" toJunction="H20W_out" end="28800.00" vehsPerHour="350"/>
    <flow id="25N_in-15N_out" begin="0.00" departLane="best" departSpeed="max" reroute="true" fromJunction="H25N_in" toJunction="H15N_out" end="28800.00" vehsPerHour="350"/>

<!--    <flow id="25N_in-10E_out" begin="0.00" departLane="best" departSpeed="max" reroute="true" fromJunction="H25N_in" toJunction="H10E_out" end="28800.00" vehsPerHour="600"/>-->

<!--    <flow id="25N_in-10W_out" begin="0.00" departLane="best" departSpeed="max" reroute="true" fromJunction="H25N_in" toJunction="H10W_out" end="28800.00" vehsPerHour="250"/>-->

<!--    <flow id="25N_in-10W_offR_1" begin="0.00" departLane="best" departSpeed="max" reroute="true" fromJunction="H25N_in" toJunction="H10W_offR_1" end="28800.00" vehsPerHour="70"/>-->
<!--    <flow id="25N_in-10W_offR_2" begin="0.00" departLane="best" departSpeed="max" reroute="true" fromJunction="H25N_in" toJunction="H10W_offR_2" end="28800.00" vehsPerHour="60"/>-->
<!--    <flow id="25N_in-10W_offR_3" begin="0.00" departLane="best" departSpeed="max" reroute="true" fromJunction="H25N_in" toJunction="H10W_offR_3" end="28800.00" vehsPerHour="70"/>-->
<!--    <flow id="25N_in-10W_offR_4" begin="0.00" departLane="best" departSpeed="max" reroute="true" fromJunction="H25N_in" toJunction="H10W_offR_4" end="28800.00" vehsPerHour="60"/>-->
<!--    <flow id="25N_in-10W_offR_5" begin="0.00" departLane="best" departSpeed="max" reroute="true" fromJunction="H25N_in" toJunction="H10W_offR_5" end="28800.00" vehsPerHour="70"/>-->
<!--    <flow id="25N_in-10W_offR_6" begin="0.00" departLane="best" departSpeed="max" reroute="true" fromJunction="H25N_in" toJunction="H10W_offR_6" end="28800.00" vehsPerHour="60"/>-->

    <flow id="25N_in-20W_offR_1" begin="0.00" departLane="best" departSpeed="max" reroute="true" fromJunction="H25N_in" toJunction="H20W_offR_1" end="28800.00" vehsPerHour="50"/>
    <flow id="25N_in-20W_offR_2" begin="0.00" departLane="best" departSpeed="max" reroute="true" fromJunction="H25N_in" toJunction="H20W_offR_2" end="28800.00" vehsPerHour="30"/>
    <flow id="25N_in-20W_offR_3" begin="0.00" departLane="best" departSpeed="max" reroute="true" fromJunction="H25N_in" toJunction="H20W_offR_3" end="28800.00" vehsPerHour="40"/>

<!--    <flow id="25N_in-15N_offR_1" begin="0.00" departLane="best" departSpeed="max" reroute="true" fromJunction="H25N_in" toJunction="H15N_offR_1" end="28800.00" vehsPerHour="60"/>-->
<!--    <flow id="25N_in-15N_offR_2" begin="0.00" departLane="best" departSpeed="max" reroute="true" fromJunction="H25N_in" toJunction="H15N_offR_2" end="28800.00" vehsPerHour="60"/>-->

    <flow id="25N_in-25N_offR_1" begin="0.00" departLane="best" departSpeed="max" reroute="true" fromJunction="H25N_in" toJunction="H25N_offR_1" end="28800.00" vehsPerHour="50"/>
    <flow id="25N_in-25N_offR_2" begin="0.00" departLane="best" departSpeed="max" reroute="true" fromJunction="H25N_in" toJunction="H25N_offR_2" end="28800.00" vehsPerHour="50"/>
    <flow id="25N_in-25N_offR_3" begin="0.00" departLane="best" departSpeed="max" reroute="true" fromJunction="H25N_in" toJunction="H25N_offR_3" end="28800.00" vehsPerHour="50"/>
    <flow id="25N_in-25N_offR_4" begin="0.00" departLane="best" departSpeed="max" reroute="true" fromJunction="H25N_in" toJunction="H25N_offR_4" end="28800.00" vehsPerHour="50"/>

    <!-- H10W in Total inflow 3900 -->
    <flow id="10W_in-15N_out" begin="0.00" departLane="best" departSpeed="max" reroute="true" fromJunction="H10W_in" toJunction="H15N_out" end="28800.00" vehsPerHour="700"/>
    <flow id="10W_in-25N_out" begin="0.00" departLane="best" departSpeed="max" reroute="true" fromJunction="H10W_in" toJunction="H25N_out" end="28800.00" vehsPerHour="600"/>
    <flow id="10W_in-20W_out" begin="0.00" departLane="best" departSpeed="max" reroute="true" fromJunction="H10W_in" toJunction="H20W_out" end="28800.00" vehsPerHour="500"/>
<!--    <flow id="10W_in-10W_out" begin="0.00" departLane="best" departSpeed="max" reroute="true" fromJunction="H10W_in" toJunction="H10W_out" end="28800.00" vehsPerHour="500"/>-->
<!--    <flow id="10W_in-15S_out" begin="0.00" departLane="best" departSpeed="max" reroute="true" fromJunction="H10W_in" toJunction="H15S_out" end="28800.00" vehsPerHour="300"/>-->
<!--    <flow id="10W_in-25S_out" begin="0.00" departLane="best" departSpeed="max" reroute="true" fromJunction="H10W_in" toJunction="H25S_out" end="28800.00" vehsPerHour="325"/>-->

<!--    <flow id="10W_in-10W_offR_1" begin="0.00" departLane="best" departSpeed="max" reroute="true" fromJunction="H10W_in" toJunction="H10W_offR_1" end="28800.00" vehsPerHour="65"/>-->
<!--    <flow id="10W_in-10W_offR_2" begin="0.00" departLane="best" departSpeed="max" reroute="true" fromJunction="H10W_in" toJunction="H10W_offR_2" end="28800.00" vehsPerHour="65"/>-->
<!--    <flow id="10W_in-10W_offR_3" begin="0.00" departLane="best" departSpeed="max" reroute="true" fromJunction="H10W_in" toJunction="H10W_offR_3" end="28800.00" vehsPerHour="65"/>-->
<!--    <flow id="10W_in-10W_offR_4" begin="0.00" departLane="best" departSpeed="max" reroute="true" fromJunction="H10W_in" toJunction="H10W_offR_4" end="28800.00" vehsPerHour="65"/>-->
<!--    <flow id="10W_in-10W_offR_5" begin="0.00" departLane="best" departSpeed="max" reroute="true" fromJunction="H10W_in" toJunction="H10W_offR_5" end="28800.00" vehsPerHour="65"/>-->
<!--    <flow id="10W_in-10W_offR_6" begin="0.00" departLane="best" departSpeed="max" reroute="true" fromJunction="H10W_in" toJunction="H10W_offR_6" end="28800.00" vehsPerHour="65"/>-->
<!--    <flow id="10W_in-10W_offR_7" begin="0.00" departLane="best" departSpeed="max" reroute="true" fromJunction="H10W_in" toJunction="H10W_offR_7" end="28800.00" vehsPerHour="65"/>-->

    <flow id="10W_in-20W_offR_1" begin="0.00" departLane="best" departSpeed="max" reroute="true" fromJunction="H10W_in" toJunction="H20W_offR_1" end="28800.00" vehsPerHour="85"/>
    <flow id="10W_in-20W_offR_2" begin="0.00" departLane="best" departSpeed="max" reroute="true" fromJunction="H10W_in" toJunction="H20W_offR_2" end="28800.00" vehsPerHour="85"/>
    <flow id="10W_in-20W_offR_3" begin="0.00" departLane="best" departSpeed="max" reroute="true" fromJunction="H10W_in" toJunction="H20W_offR_3" end="28800.00" vehsPerHour="85"/>

<!--    <flow id="10W_in-15N_offR_1" begin="0.00" departLane="best" departSpeed="max" reroute="true" fromJunction="H10W_in" toJunction="H15N_offR_1" end="28800.00" vehsPerHour="85"/>-->
<!--    <flow id="10W_in-15N_offR_2" begin="0.00" departLane="best" departSpeed="max" reroute="true" fromJunction="H10W_in" toJunction="H15N_offR_2" end="28800.00" vehsPerHour="85"/>-->

    <flow id="10W_in-25N_offR_1" begin="0.00" departLane="best" departSpeed="max" reroute="true" fromJunction="H10W_in" toJunction="H25N_offR_1" end="28800.00" vehsPerHour="65"/>
    <flow id="10W_in-25N_offR_2" begin="0.00" departLane="best" departSpeed="max" reroute="true" fromJunction="H10W_in" toJunction="H25N_offR_2" end="28800.00" vehsPerHour="50"/>
    <flow id="10W_in-25N_offR_3" begin="0.00" departLane="best" departSpeed="max" reroute="true" fromJunction="H10W_in" toJunction="H25N_offR_3" end="28800.00" vehsPerHour="65"/>
    <flow id="10W_in-25N_offR_4" begin="0.00" departLane="best" departSpeed="max" reroute="true" fromJunction="H10W_in" toJunction="H25N_offR_4" end="28800.00" vehsPerHour="50"/>


    <!-- H20W in Total inflow 1800 -->
    <flow id="20W_in-15N_out" begin="0.00" departLane="best" departSpeed="max" reroute="true" fromJunction="H20W_in" toJunction="H15N_out" end="28800.00" vehsPerHour="100"/>
    <flow id="20W_in-20W_out" begin="0.00" departLane="best" departSpeed="max" reroute="true" fromJunction="H20W_in" toJunction="H20W_out" end="28800.00" vehsPerHour="300"/>
<!--    <flow id="20W_in-25N_out" begin="0.00" departLane="best" departSpeed="max" reroute="true" fromJunction="H20W_in" toJunction="H25N_out" end="28800.00" vehsPerHour="300"/>-->
<!--    <flow id="20W_in-10W_out" begin="0.00" departLane="best" departSpeed="max" reroute="true" fromJunction="H20W_in" toJunction="H10W_out" end="28800.00" vehsPerHour="200"/>-->
<!--    <flow id="20W_in-15S_out" begin="0.00" departLane="best" departSpeed="max" reroute="true" fromJunction="H20W_in" toJunction="H15S_out" end="28800.00" vehsPerHour="200"/>-->
<!--    <flow id="20W_in-25S_out" begin="0.00" departLane="best" departSpeed="max" reroute="true" fromJunction="H20W_in" toJunction="H25S_out" end="28800.00" vehsPerHour="200"/>-->

    <flow id="20W_in-20W_offR_1" begin="0.00" departLane="best" departSpeed="max" reroute="true" fromJunction="H20W_in" toJunction="H20W_offR_1" end="28800.00" vehsPerHour="50"/>
    <flow id="20W_in-20W_offR_2" begin="0.00" departLane="best" departSpeed="max" reroute="true" fromJunction="H20W_in" toJunction="H20W_offR_2" end="28800.00" vehsPerHour="50"/>
    <flow id="20W_in-20W_offR_3" begin="0.00" departLane="best" departSpeed="max" reroute="true" fromJunction="H20W_in" toJunction="H20W_offR_3" end="28800.00" vehsPerHour="50"/>

    <flow id="20W_in-15S_offR_1" begin="0.00" departLane="best" departSpeed="max" reroute="true" fromJunction="H20W_in" toJunction="H15S_offR_1" end="28800.00" vehsPerHour="50"/>

    <!-- H15S in Total inflow 3100 -->
    <flow id="15S_in-15S_out" begin="0.00" departLane="best" departSpeed="max" reroute="true" fromJunction="H15S_in" toJunction="H15S_out" end="28800.00" vehsPerHour="404"/>
    <flow id="15S_in-10E_out" begin="0.00" departLane="best" departSpeed="max" reroute="true" fromJunction="H15S_in" toJunction="H10E_out" end="28800.00" vehsPerHour="270"/>
    <flow id="15S_in-25S_out" begin="0.00" departLane="best" departSpeed="max" reroute="true" fromJunction="H15S_in" toJunction="H25S_out" end="28800.00" vehsPerHour="337"/>

<!--    <flow id="15S_in-20W_out" begin="0.00" departLane="best" departSpeed="max" reroute="true" fromJunction="H15S_in" toJunction="H20W_out" end="28800.00" vehsPerHour="472"/>-->
<!--    <flow id="15S_in-10W_out" begin="0.00" departLane="best" departSpeed="max" reroute="true" fromJunction="H15S_in" toJunction="H10W_out" end="28800.00" vehsPerHour="404"/>-->
<!--    <flow id="15S_in-20E_out" begin="0.00" departLane="best" departSpeed="max" reroute="true" fromJunction="H15S_in" toJunction="H20E_out" end="28800.00" vehsPerHour="337"/>-->
    <flow id="15S_in-15S_offR_1" begin="0.00" departLane="best" departSpeed="max" reroute="true" fromJunction="H15S_in" toJunction="H15S_offR_1" end="28800.00" vehsPerHour="101"/>
    <flow id="15S_in-15S_offR_2" begin="0.00" departLane="best" departSpeed="max" reroute="true" fromJunction="H15S_in" toJunction="H15S_offR_2" end="28800.00" vehsPerHour="101"/>
<!--    <flow id="15S_in-25S_offR_1" begin="0.00" departLane="best" departSpeed="max" reroute="true" fromJunction="H15S_in" toJunction="H25S_offR_1" end="28800.00" vehsPerHour="169"/>-->
<!--    <flow id="15S_in-25S_offR_2" begin="0.00" departLane="best" departSpeed="max" reroute="true" fromJunction="H15S_in" toJunction="H25S_offR_2" end="28800.00" vehsPerHour="101"/>-->
<!--    <flow id="15S_in-20E_offR_1" begin="0.00" departLane="best" departSpeed="max" reroute="true" fromJunction="H15S_in" toJunction="H20E_offR_1" end="28800.00" vehsPerHour="169"/>-->
    <flow id="15S_in-10E_offR_1" begin="0.00" departLane="best" departSpeed="max" reroute="true" fromJunction="H15S_in" toJunction="H10E_offR_1" end="28800.00" vehsPerHour="135"/>
    <flow id="15S_in-10E_offR_2" begin="0.00" departLane="best" departSpeed="max" reroute="true" fromJunction="H15S_in" toJunction="H10E_offR_2" end="28800.00" vehsPerHour="101"/>
    <flow id="15S_in-10E_offR_3" begin="0.00" departLane="best" departSpeed="max" reroute="true" fromJunction="H15S_in" toJunction="H10E_offR_3" end="28800.00" vehsPerHour="135"/>
    <flow id="15S_in-10E_offR_4" begin="0.00" departLane="best" departSpeed="max" reroute="true" fromJunction="H15S_in" toJunction="H10E_offR_4" end="28800.00" vehsPerHour="101"/>
    <flow id="15S_in-10E_offR_5" begin="0.00" departLane="best" departSpeed="max" reroute="true" fromJunction="H15S_in" toJunction="H10E_offR_5" end="28800.00" vehsPerHour="135"/>

    <!-- H25S in Total inflow 3300 -->
    <flow id="25S_in-20W_out" begin="0.00" departLane="best" departSpeed="max" reroute="true" fromJunction="H25S_in" toJunction="H20W_out" end="28800.00" vehsPerHour="651"/>
    <flow id="25S_in-15S_out" begin="0.00" departLane="best" departSpeed="max" reroute="true" fromJunction="H25S_in" toJunction="H15S_out" end="28800.00" vehsPerHour="465"/>
<!--    <flow id="25S_in-25S_out" begin="0.00" departLane="best" departSpeed="max" reroute="true" fromJunction="H25S_in" toJunction="H25S_out" end="28800.00" vehsPerHour="558"/>-->
<!--    <flow id="25S_in-10E_out" begin="0.00" departLane="best" departSpeed="max" reroute="true" fromJunction="H25S_in" toJunction="H10E_out" end="28800.00" vehsPerHour="279"/>-->
    <!--    <flow id="25S_in-10W_out" begin="0.00" departLane="best" departSpeed="max" reroute="true" fromJunction="H25S_in" toJunction="H10W_out" end="28800.00" vehsPerHour="558"/>-->

    <flow id="25S_in-15S_offR_1" begin="0.00" departLane="best" departSpeed="max" reroute="true" fromJunction="H25S_in" toJunction="H15S_offR_1" end="28800.00" vehsPerHour="139"/>
    <flow id="25S_in-15S_offR_2" begin="0.00" departLane="best" departSpeed="max" reroute="true" fromJunction="H25S_in" toJunction="H15S_offR_2" end="28800.00" vehsPerHour="93"/>

<!--    <flow id="25S_in-25S_offR_1" begin="0.00" departLane="best" departSpeed="max" reroute="true" fromJunction="H25S_in" toJunction="H25S_offR_1" end="28800.00" vehsPerHour="139"/>-->
<!--    <flow id="25S_in-25S_offR_2" begin="0.00" departLane="best" departSpeed="max" reroute="true" fromJunction="H25S_in" toJunction="H25S_offR_2" end="28800.00" vehsPerHour="93"/>-->

    <flow id="25S_in-20W_offR_1" begin="0.00" departLane="best" departSpeed="max" reroute="true" fromJunction="H25S_in" toJunction="H20W_offR_1" end="28800.00" vehsPerHour="139"/>
    <flow id="25S_in-20W_offR_2" begin="0.00" departLane="best" departSpeed="max" reroute="true" fromJunction="H25S_in" toJunction="H20W_offR_2" end="28800.00" vehsPerHour="139"/>
    <flow id="25S_in-20W_offR_3" begin="0.00" departLane="best" departSpeed="max" reroute="true" fromJunction="H25S_in" toJunction="H20W_offR_3" end="28800.00" vehsPerHour="139"/>

<!--    <flow id="25S_in-10W_offR_1" begin="0.00" departLane="best" departSpeed="max" reroute="true" fromJunction="H25S_in" toJunction="H10W_offR_1" end="28800.00" vehsPerHour="102"/>-->
<!--    <flow id="25S_in-10W_offR_2" begin="0.00" departLane="best" departSpeed="max" reroute="true" fromJunction="H25S_in" toJunction="H10W_offR_2" end="28800.00" vehsPerHour="84"/>-->

    <!-- H20E in Total inflow 4000 -->
    <flow id="20E_in-15S_out" begin="0.00" departLane="best" departSpeed="max" reroute="true" fromJunction="H20E_in" toJunction="H15S_out" end="28800.00" vehsPerHour="582"/>
    <flow id="20E_in-10E_out" begin="0.00" departLane="best" departSpeed="max" reroute="true" fromJunction="H20E_in" toJunction="H10E_out" end="28800.00" vehsPerHour="436"/>
    <flow id="20E_in-25S_out" begin="0.00" departLane="best" departSpeed="max" reroute="true" fromJunction="H20E_in" toJunction="H25S_out" end="28800.00" vehsPerHour="582"/>

    <flow id="20E_in-10E_offR_1" begin="0.00" departLane="best" departSpeed="max" reroute="true" fromJunction="H20E_in" toJunction="H10E_offR_1" end="28800.00" vehsPerHour="145"/>
    <flow id="20E_in-10E_offR_2" begin="0.00" departLane="best" departSpeed="max" reroute="true" fromJunction="H20E_in" toJunction="H10E_offR_2" end="28800.00" vehsPerHour="145"/>
    <flow id="20E_in-10E_offR_3" begin="0.00" departLane="best" departSpeed="max" reroute="true" fromJunction="H20E_in" toJunction="H10E_offR_3" end="28800.00" vehsPerHour="145"/>
    <flow id="20E_in-10E_offR_4" begin="0.00" departLane="best" departSpeed="max" reroute="true" fromJunction="H20E_in" toJunction="H10E_offR_4" end="28800.00" vehsPerHour="145"/>
    <flow id="20E_in-10E_offR_5" begin="0.00" departLane="best" departSpeed="max" reroute="true" fromJunction="H20E_in" toJunction="H10E_offR_5" end="28800.00" vehsPerHour="145"/>

    <flow id="20E_in-15S_offR_1" begin="0.00" departLane="best" departSpeed="max" reroute="true" fromJunction="H20E_in" toJunction="H15S_offR_1" end="28800.00" vehsPerHour="145"/>
    <flow id="20E_in-15S_offR_2" begin="0.00" departLane="best" departSpeed="max" reroute="true" fromJunction="H20E_in" toJunction="H15S_offR_2" end="28800.00" vehsPerHour="145"/>


<!--    <flow id="20E_in-10W_out" begin="0.00" departLane="best" departSpeed="max" reroute="true" fromJunction="H20E_in" toJunction="H10W_out" end="28800.00" vehsPerHour="364"/>-->
<!--    <flow id="20E_in-20E_out" begin="0.00" departLane="best" departSpeed="max" reroute="true" fromJunction="H20E_in" toJunction="H20E_out" end="28800.00" vehsPerHour="291"/>-->
<!--    <flow id="20E_in-15N_out" begin="0.00" departLane="best" departSpeed="max" reroute="true" fromJunction="H20E_in" toJunction="H15N_out" end="28800.00" vehsPerHour="582"/>-->
<!--    <flow id="20E_in-25N_out" begin="0.00" departLane="best" departSpeed="max" reroute="true" fromJunction="H20E_in" toJunction="H25N_out" end="28800.00" vehsPerHour="291"/>-->

<!--    <flow id="20E_in-25S_offR_2" begin="0.00" departLane="best" departSpeed="max" reroute="true" fromJunction="H20E_in" toJunction="H25S_offR_2" end="28800.00" vehsPerHour="145"/>-->
<!--    <flow id="20E_in-15N_offR_2" begin="0.00" departLane="best" departSpeed="max" reroute="true" fromJunction="H20E_in" toJunction="H15N_offR_2" end="28800.00" vehsPerHour="145"/>-->
<!--    <flow id="20E_in-25N_offR_2" begin="0.00" departLane="best" departSpeed="max" reroute="true" fromJunction="H20E_in" toJunction="H25N_offR_2" end="28800.00" vehsPerHour="73"/>-->
<!--    <flow id="20E_in-20E_offR_1" begin="0.00" departLane="best" departSpeed="max" reroute="true" fromJunction="H20E_in" toJunction="H20E_offR_1" end="28800.00" vehsPerHour="145"/>-->



    <!-- H10E in Total inflow 3200 -->
    <flow id="10E_in-10E_out" begin="0.00" departLane="best" departSpeed="max" reroute="true" fromJunction="H10E_in" toJunction="H10E_out" end="28800.00" vehsPerHour="200"/>
    <flow id="10E_in-25S_out" begin="0.00" departLane="best" departSpeed="max" reroute="true" fromJunction="H10E_in" toJunction="H25S_out" end="28800.00" vehsPerHour="294"/>
    <flow id="10E_in-25N_out" begin="0.00" departLane="best" departSpeed="max" reroute="true" fromJunction="H10E_in" toJunction="H25N_out" end="28800.00" vehsPerHour="368"/>

<!--    <flow id="10E_in-15S_out" begin="0.00" departLane="best" departSpeed="max" reroute="true" fromJunction="H10E_in" toJunction="H15S_out" end="28800.00" vehsPerHour="221"/>-->
<!--    <flow id="10E_in-20E_out" begin="0.00" departLane="best" departSpeed="max" reroute="true" fromJunction="H10E_in" toJunction="H20E_out" end="28800.00" vehsPerHour="221"/>-->
<!--    <flow id="10E_in-15N_out" begin="0.00" departLane="best" departSpeed="max" reroute="true" fromJunction="H10E_in" toJunction="H15N_out" end="28800.00" vehsPerHour="368"/>-->
<!--    <flow id="10E_in-20W_out" begin="0.00" departLane="best" departSpeed="max" reroute="true" fromJunction="H10E_in" toJunction="H20W_out" end="28800.00" vehsPerHour="368"/>-->

<!--    <flow id="10E_in-15N_offR_1" begin="0.00" departLane="best" departSpeed="max" reroute="true" fromJunction="H10E_in" toJunction="H15N_offR_1" end="28800.00" vehsPerHour="110"/>-->
<!--    <flow id="10E_in-25N_offR_1" begin="0.00" departLane="best" departSpeed="max" reroute="true" fromJunction="H10E_in" toJunction="H25N_offR_1" end="28800.00" vehsPerHour="110"/>-->
<!--    <flow id="10E_in-15N_offR_2" begin="0.00" departLane="best" departSpeed="max" reroute="true" fromJunction="H10E_in" toJunction="H15N_offR_2" end="28800.00" vehsPerHour="147"/>-->
<!--    <flow id="10E_in-25N_offR_2" begin="0.00" departLane="best" departSpeed="max" reroute="true" fromJunction="H10E_in" toJunction="H25N_offR_2" end="28800.00" vehsPerHour="74"/>-->
<!--    <flow id="10E_in-20E_offR_1" begin="0.00" departLane="best" departSpeed="max" reroute="true" fromJunction="H10E_in" toJunction="H20E_offR_1" end="28800.00" vehsPerHour="147"/>-->

    <flow id="10E_in-10E_offR_1" begin="0.00" departLane="best" departSpeed="max" reroute="true" fromJunction="H10E_in" toJunction="H10E_offR_1" end="28800.00" vehsPerHour="110"/>
    <flow id="10E_in-10E_offR_2" begin="0.00" departLane="best" departSpeed="max" reroute="true" fromJunction="H10E_in" toJunction="H10E_offR_2" end="28800.00" vehsPerHour="110"/>
    <flow id="10E_in-10E_offR_3" begin="0.00" departLane="best" departSpeed="max" reroute="true" fromJunction="H10E_in" toJunction="H10E_offR_3" end="28800.00" vehsPerHour="110"/>
    <flow id="10E_in-10E_offR_4" begin="0.00" departLane="best" departSpeed="max" reroute="true" fromJunction="H10E_in" toJunction="H10E_offR_4" end="28800.00" vehsPerHour="110"/>
    <flow id="10E_in-10E_offR_5" begin="0.00" departLane="best" departSpeed="max" reroute="true" fromJunction="H10E_in" toJunction="H10E_offR_5" end="28800.00" vehsPerHour="110"/>

    <flow id="10E_in-25N_offR_1" begin="0.00" departLane="best" departSpeed="max" reroute="true" fromJunction="H10E_in" toJunction="H25N_offR_1" end="28800.00" vehsPerHour="110"/>
    <flow id="10E_in-25N_offR_2" begin="0.00" departLane="best" departSpeed="max" reroute="true" fromJunction="H10E_in" toJunction="H25N_offR_2" end="28800.00" vehsPerHour="110"/>
    <flow id="10E_in-25N_offR_3" begin="0.00" departLane="best" departSpeed="max" reroute="true" fromJunction="H10E_in" toJunction="H25N_offR_3" end="28800.00" vehsPerHour="110"/>
    <flow id="10E_in-25N_offR_4" begin="0.00" departLane="best" departSpeed="max" reroute="true" fromJunction="H10E_in" toJunction="H25N_offR_4" end="28800.00" vehsPerHour="110"/>





    <!-- H10E_onR_1 Total inflow 500 -->
    <flow id="10E_onR_1-25S_out" begin="0.00" departLane="best" departSpeed="max" reroute="true" fromJunction="H10E_onR_1" toJunction="H25S_out" end="28800.00" vehsPerHour="117"/>
    <flow id="10E_onR_1-10E_out" begin="0.00" departLane="best" departSpeed="max" reroute="true" fromJunction="H10E_onR_1" toJunction="H10E_out" end="28800.00" vehsPerHour="88"/>
    <flow id="10E_onR_1-15N_out" begin="0.00" departLane="best" departSpeed="max" reroute="true" fromJunction="H10E_onR_1" toJunction="H15N_out" end="28800.00" vehsPerHour="87"/>
    <flow id="10E_onR_1-25N_out" begin="0.00" departLane="best" departSpeed="max" reroute="true" fromJunction="H10E_onR_1" toJunction="H25N_out" end="28800.00" vehsPerHour="117"/>
    <flow id="10E_onR_1-20W_out" begin="0.00" departLane="best" departSpeed="max" reroute="true" fromJunction="H10E_onR_1" toJunction="H20W_out" end="28800.00" vehsPerHour="58"/>

    <!-- H10E_onR_2 Total inflow 600 -->
    <flow id="10E_onR_2-25S_out" begin="0.00" departLane="best" departSpeed="max" reroute="true" fromJunction="H10E_onR_2" toJunction="H25S_out" end="28800.00" vehsPerHour="100"/>
    <flow id="10E_onR_2-10E_out" begin="0.00" departLane="best" departSpeed="max" reroute="true" fromJunction="H10E_onR_2" toJunction="H10E_out" end="28800.00" vehsPerHour="200"/>
    <flow id="10E_onR_2-15N_out" begin="0.00" departLane="best" departSpeed="max" reroute="true" fromJunction="H10E_onR_2" toJunction="H15N_out" end="28800.00" vehsPerHour="90"/>
    <flow id="10E_onR_2-25N_out" begin="0.00" departLane="best" departSpeed="max" reroute="true" fromJunction="H10E_onR_2" toJunction="H25N_out" end="28800.00" vehsPerHour="100"/>
    <flow id="10E_onR_2-20W_out" begin="0.00" departLane="best" departSpeed="max" reroute="true" fromJunction="H10E_onR_2" toJunction="H20W_out" end="28800.00" vehsPerHour="120"/>

     <!-- H10E_onR_3 Total inflow 400 -->
    <flow id="10E_onR_3-25S_out" begin="0.00" departLane="best" departSpeed="max" reroute="true" fromJunction="H10E_onR_3" toJunction="H25S_out" end="28800.00" vehsPerHour="100"/>
    <flow id="10E_onR_3-10E_out" begin="0.00" departLane="best" departSpeed="max" reroute="true" fromJunction="H10E_onR_3" toJunction="H10E_out" end="28800.00" vehsPerHour="200"/>
    <flow id="10E_onR_3-15N_out" begin="0.00" departLane="best" departSpeed="max" reroute="true" fromJunction="H10E_onR_3" toJunction="H15N_out" end="28800.00" vehsPerHour="70"/>
    <flow id="10E_onR_3-25N_out" begin="0.00" departLane="best" departSpeed="max" reroute="true" fromJunction="H10E_onR_3" toJunction="H25N_out" end="28800.00" vehsPerHour="100"/>
    <flow id="10E_onR_3-20W_out" begin="0.00" departLane="best" departSpeed="max" reroute="true" fromJunction="H10E_onR_3" toJunction="H20W_out" end="28800.00" vehsPerHour="120"/>

    <!-- H10E_onR_4 Total inflow 300 -->
    <flow id="10E_onR_4-25S_out" begin="0.00" departLane="best" departSpeed="max" reroute="true" fromJunction="H10E_onR_4" toJunction="H25S_out" end="28800.00" vehsPerHour="100"/>
    <flow id="10E_onR_4-10E_out" begin="0.00" departLane="best" departSpeed="max" reroute="true" fromJunction="H10E_onR_4" toJunction="H10E_out" end="28800.00" vehsPerHour="200"/>
    <flow id="10E_onR_4-15N_out" begin="0.00" departLane="best" departSpeed="max" reroute="true" fromJunction="H10E_onR_4" toJunction="H15N_out" end="28800.00" vehsPerHour="80"/>
    <flow id="10E_onR_4-25N_out" begin="0.00" departLane="best" departSpeed="max" reroute="true" fromJunction="H10E_onR_4" toJunction="H25N_out" end="28800.00" vehsPerHour="100"/>
    <flow id="10E_onR_4-20W_out" begin="0.00" departLane="best" departSpeed="max" reroute="true" fromJunction="H10E_onR_4" toJunction="H20W_out" end="28800.00" vehsPerHour="120"/>

    <!-- H10E_onR_5 Total inflow 400 -->