<?xml version="1.0" encoding="UTF-8"?>

<!-- generated on 2024-07-05 00:55:02 by Eclipse SUMO netedit Version 1.20.0
<configuration xmlns:xsi="http://www.w3.org/2001/XMLSchema-instance" xsi:noNamespaceSchemaLocation="http://sumo.dlr.de/xsd/neteditConfiguration.xsd">

    <input>
        <sumo-net-file value="/Users/zihangwei/Documents/SUMO_TrafficNetwork/Network_Files_1/Traffic_Net.net.xml"/>
    </input>

    <output>
        <output-file value="/Users/zihangwei/Documents/SUMO_TrafficNetwork/Network_Files_1/Traffic_Net.net.xml"/>
        <output.street-names value="true"/>
    </output>

    <processing>
        <geometry.min-radius.fix.railways value="false"/>
        <geometry.max-grade.fix value="false"/>
        <offset.disable-normalization value="true"/>
        <lefthand value="0"/>
    </processing>

    <junctions>
        <no-turnarounds value="true"/>
        <junctions.corner-detail value="5"/>
        <junctions.limit-turn-speed value="5.50"/>
        <rectangular-lane-cut value="0"/>
    </junctions>

    <pedestrian>
        <walkingareas value="0"/>
    </pedestrian>

</configuration>
-->

<net version="1.20" junctionCornerDetail="5" limitTurnSpeed="5.50" xmlns:xsi="http://www.w3.org/2001/XMLSchema-instance" xsi:noNamespaceSchemaLocation="http://sumo.dlr.de/xsd/net_file.xsd">

    <location netOffset="-388382.22,-3747822.70" convBoundary="-7.18,0.00,10990.02,6818.97" origBoundary="-118.206847,33.865832,-118.088061,33.926592" projParameter="+proj=utm +zone=11 +ellps=WGS84 +datum=WGS84 +units=m +no_defs"/>

    <type id="highway.motorway" priority="14" numLanes="2" speed="39.44" allow="private emergency authority army vip passenger hov taxi bus coach delivery truck trailer motorcycle evehicle custom1 custom2" oneway="1"/>
    <type id="highway.motorway_link" priority="9" numLanes="1" speed="22.22" allow="private emergency authority army vip passenger hov taxi bus coach delivery truck trailer motorcycle evehicle custom1 custom2" oneway="1"/>

    <edge id=":10185265723_0" function="internal">
        <lane id=":10185265723_0_0" index="0" allow="private emergency authority army vip passenger hov taxi bus coach delivery truck trailer motorcycle evehicle custom1 custom2" speed="22.22" length="8.19" shape="9829.38,1343.47 9827.33,1344.71 9826.13,1345.89 9824.93,1347.08 9822.90,1348.36"/>
        <lane id=":10185265723_0_1" index="1" allow="private emergency authority army vip passenger hov taxi bus coach delivery truck trailer motorcycle evehicle custom1 custom2" speed="22.22" length="8.19" shape="9829.38,1343.47 9827.11,1344.26 9825.42,1344.45 9823.74,1344.66 9821.49,1345.49"/>
    </edge>
    <edge id=":10565360_0" function="internal">
        <lane id=":10565360_0_0" index="0" allow="private emergency authority army vip passenger hov taxi bus coach delivery truck trailer motorcycle evehicle custom1 custom2" speed="23.41" length="2.57" shape="1145.71,706.21 1145.54,705.49 1145.41,705.01 1145.26,704.52 1145.02,703.83"/>
        <lane id=":10565360_0_1" index="1" allow="private emergency authority army vip passenger hov taxi bus coach delivery truck trailer motorcycle evehicle custom1 custom2" speed="23.41" length="2.57" shape="1148.79,705.32 1148.60,704.56 1148.46,704.04 1148.30,703.52 1148.04,702.78"/>
    </edge>
    <edge id=":10565360_2" function="internal">
        <lane id=":10565360_2_0" index="0" allow="private emergency authority army vip passenger hov taxi bus coach delivery truck trailer motorcycle evehicle custom1 custom2" speed="24.59" length="3.39" shape="1150.37,704.86 1151.06,701.73"/>
        <lane id=":10565360_2_1" index="1" allow="private emergency authority army vip passenger hov taxi bus coach delivery truck trailer motorcycle evehicle custom1 custom2" speed="24.59" length="3.39" shape="1153.45,703.97 1154.09,700.68"/>
        <lane id=":10565360_2_2" index="2" allow="private emergency authority army vip passenger hov taxi bus coach delivery truck trailer motorcycle evehicle custom1 custom2" speed="24.59" length="3.39" shape="1156.52,703.09 1156.49,702.07 1156.85,701.35 1157.19,700.64 1157.11,699.64"/>
    </edge>
    <edge id=":119361806#1-AddedOnRampNode_0" function="internal">
        <lane id=":119361806#1-AddedOnRampNode_0_0" index="0" allow="private emergency authority army vip passenger hov taxi bus coach delivery truck trailer motorcycle evehicle custom1 custom2" speed="39.44" length="8.00" shape="1886.72,5587.06 1879.35,5590.17"/>
        <lane id=":119361806#1-AddedOnRampNode_0_1" index="1" allow="private emergency authority army vip passenger hov taxi bus coach delivery truck trailer motorcycle evehicle custom1 custom2" speed="39.44" length="8.00" shape="1885.48,5584.11 1878.11,5587.22"/>
        <lane id=":119361806#1-AddedOnRampNode_0_2" index="2" allow="private emergency authority army vip passenger hov taxi bus coach delivery truck trailer motorcycle evehicle custom1 custom2" speed="39.44" length="8.00" shape="1884.23,5581.16 1876.86,5584.27"/>
        <lane id=":119361806#1-AddedOnRampNode_0_3" index="3" allow="private emergency authority army vip passenger hov taxi bus coach delivery truck trailer motorcycle evehicle custom1 custom2" speed="39.44" length="8.00" shape="1882.99,5578.21 1875.62,5581.32"/>
    </edge>
    <edge id=":119881328-AddedOffRampNode_0" function="internal">
        <lane id=":119881328-AddedOffRampNode_0_0" index="0" allow="private emergency authority army vip passenger hov taxi bus coach delivery truck trailer motorcycle evehicle custom1 custom2" speed="29.06" length="8.10" shape="2383.46,1333.29 2381.00,1333.78 2379.46,1334.88 2377.91,1335.98 2375.45,1336.47"/>
        <lane id=":119881328-AddedOffRampNode_0_1" index="1" allow="private emergency authority army vip passenger hov taxi bus coach delivery truck trailer motorcycle evehicle custom1 custom2" speed="29.06" length="8.10" shape="2383.46,1333.29 2375.46,1333.27"/>
        <lane id=":119881328-AddedOffRampNode_0_2" index="2" allow="private emergency authority army vip passenger hov taxi bus coach delivery truck trailer motorcycle evehicle custom1 custom2" speed="29.06" length="8.10" shape="2383.47,1330.09 2375.47,1330.07"/>
        <lane id=":119881328-AddedOffRampNode_0_3" index="3" allow="private emergency authority army vip passenger hov taxi bus coach delivery truck trailer motorcycle evehicle custom1 custom2" speed="29.06" length="8.10" shape="2383.47,1326.89 2375.47,1326.87"/>
        <lane id=":119881328-AddedOffRampNode_0_4" index="4" allow="private emergency authority army vip passenger hov taxi bus coach delivery truck trailer motorcycle evehicle custom1 custom2" speed="29.06" length="8.10" shape="2383.48,1323.69 2375.48,1323.67"/>
        <lane id=":119881328-AddedOffRampNode_0_5" index="5" allow="private emergency authority army vip passenger hov taxi bus coach delivery truck trailer motorcycle evehicle custom1 custom2" speed="29.06" length="8.10" shape="2383.49,1320.49 2375.49,1320.47"/>
        <lane id=":119881328-AddedOffRampNode_0_6" index="6" allow="private emergency authority army vip passenger hov taxi bus coach delivery truck trailer motorcycle evehicle custom1 custom2" speed="29.06" length="8.10" shape="2383.50,1317.29 2375.50,1317.27"/>
        <lane id=":119881328-AddedOffRampNode_0_7" index="7" allow="private emergency authority army vip passenger hov taxi bus coach delivery truck trailer motorcycle evehicle custom1 custom2" speed="29.06" length="8.10" shape="2383.50,1314.09 2375.50,1314.07"/>
    </edge>
    <edge id=":119881340#1-AddedOnRampNode_0" function="internal">
        <lane id=":119881340#1-AddedOnRampNode_0_0" index="0" allow="private emergency authority army vip passenger hov taxi bus coach delivery truck trailer motorcycle evehicle custom1 custom2" speed="29.06" length="8.00" shape="3125.66,1322.34 3117.73,1323.40"/>
        <lane id=":119881340#1-AddedOnRampNode_0_1" index="1" allow="private emergency authority army vip passenger hov taxi bus coach delivery truck trailer motorcycle evehicle custom1 custom2" speed="29.06" length="8.00" shape="3125.24,1319.17 3117.31,1320.23"/>
        <lane id=":119881340#1-AddedOnRampNode_0_2" index="2" allow="private emergency authority army vip passenger hov taxi bus coach delivery truck trailer motorcycle evehicle custom1 custom2" speed="29.06" length="8.00" shape="3124.81,1316.00 3116.88,1317.06"/>
        <lane id=":119881340#1-AddedOnRampNode_0_3" index="3" allow="private emergency authority army vip passenger hov taxi bus coach delivery truck trailer motorcycle evehicle custom1 custom2" speed="29.06" length="8.00" shape="3124.38,1312.83 3116.46,1313.89"/>
        <lane id=":119881340#1-AddedOnRampNode_0_4" index="4" allow="private emergency authority army vip passenger hov taxi bus coach delivery truck trailer motorcycle evehicle custom1 custom2" speed="29.06" length="8.00" shape="3123.96,1309.65 3116.03,1310.71"/>
        <lane id=":119881340#1-AddedOnRampNode_0_5" index="5" allow="private emergency authority army vip passenger hov taxi bus coach delivery truck trailer motorcycle evehicle custom1 custom2" speed="29.06" length="8.00" shape="3123.53,1306.48 3115.61,1307.54"/>
    </edge>
    <edge id=":121647278-AddedOffRampNode_0" function="internal">
        <lane id=":121647278-AddedOffRampNode_0_0" index="0" allow="private emergency authority army vip passenger hov taxi bus coach delivery truck trailer motorcycle evehicle custom1 custom2" speed="29.06" length="8.11" shape="4729.50,1267.98 4731.99,1267.70 4733.62,1266.75 4735.25,1265.80 4737.75,1265.53"/>
        <lane id=":121647278-AddedOffRampNode_0_1" index="1" allow="private emergency authority army vip passenger hov taxi bus coach delivery truck trailer motorcycle evehicle custom1 custom2" speed="29.06" length="8.11" shape="4729.50,1267.98 4737.46,1268.71"/>
        <lane id=":121647278-AddedOffRampNode_0_2" index="2" allow="private emergency authority army vip passenger hov taxi bus coach delivery truck trailer motorcycle evehicle custom1 custom2" speed="29.06" length="8.11" shape="4729.20,1271.16 4737.16,1271.90"/>
        <lane id=":121647278-AddedOffRampNode_0_3" index="3" allow="private emergency authority army vip passenger hov taxi bus coach delivery truck trailer motorcycle evehicle custom1 custom2" speed="29.06" length="8.11" shape="4728.91,1274.35 4736.87,1275.09"/>
        <lane id=":121647278-AddedOffRampNode_0_4" index="4" allow="private emergency authority army vip passenger hov taxi bus coach delivery truck trailer motorcycle evehicle custom1 custom2" speed="29.06" length="8.11" shape="4728.61,1277.54 4736.58,1278.27"/>
        <lane id=":121647278-AddedOffRampNode_0_5" index="5" allow="private emergency authority army vip passenger hov taxi bus coach delivery truck trailer motorcycle evehicle custom1 custom2" speed="29.06" length="8.11" shape="4728.32,1280.72 4736.29,1281.46"/>
        <lane id=":121647278-AddedOffRampNode_0_6" index="6" allow="private emergency authority army vip passenger hov taxi bus coach delivery truck trailer motorcycle evehicle custom1 custom2" speed="29.06" length="8.11" shape="4728.02,1283.91 4735.99,1284.65"/>
    </edge>
    <edge id=":122409018_0" function="internal">
        <lane id=":122409018_0_0" index="0" allow="private emergency authority army vip passenger hov taxi bus coach delivery truck trailer motorcycle evehicle custom1 custom2" speed="22.22" length="8.00" shape="598.73,919.86 596.40,919.86 594.82,920.26 593.23,920.71 590.90,920.85"/>
        <lane id=":122409018_0_1" index="1" allow="private emergency authority army vip passenger hov taxi bus coach delivery truck trailer motorcycle evehicle custom1 custom2" speed="22.22" length="8.00" shape="598.73,919.86 596.41,919.36 594.89,918.66 593.37,918.01 591.05,917.65"/>
    </edge>
    <edge id=":122432605_0" function="internal">
        <lane id=":122432605_0_0" index="0" allow="private emergency authority army vip passenger hov taxi bus coach delivery truck trailer motorcycle evehicle custom1 custom2" speed="22.22" length="7.99" shape="1157.83,807.57 1156.10,799.77"/>
    </edge>
    <edge id=":122453739_0" function="internal">
        <lane id=":122453739_0_0" index="0" allow="private emergency authority army vip passenger hov taxi bus coach delivery truck trailer motorcycle evehicle custom1 custom2" speed="22.22" length="8.21" shape="7303.16,5312.91 7300.75,5312.92 7299.10,5313.31 7297.45,5313.70 7295.04,5313.71"/>
    </edge>
    <edge id=":123456270-AddedOffRampNode_0" function="internal">
        <lane id=":123456270-AddedOffRampNode_0_0" index="0" allow="private emergency authority army vip passenger hov taxi bus coach delivery truck trailer motorcycle evehicle custom1 custom2" speed="29.06" length="8.16" shape="10399.64,1183.90 10397.18,1184.39 10395.64,1185.49 10394.10,1186.59 10391.63,1187.08"/>
        <lane id=":123456270-AddedOffRampNode_0_1" index="1" allow="private emergency authority army vip passenger hov taxi bus coach delivery truck trailer motorcycle evehicle custom1 custom2" speed="29.06" length="8.16" shape="10399.64,1183.90 10391.64,1183.88"/>
        <lane id=":123456270-AddedOffRampNode_0_2" index="2" allow="private emergency authority army vip passenger hov taxi bus coach delivery truck trailer motorcycle evehicle custom1 custom2" speed="29.06" length="8.16" shape="10399.65,1180.70 10391.65,1180.68"/>
        <lane id=":123456270-AddedOffRampNode_0_3" index="3" allow="private emergency authority army vip passenger hov taxi bus coach delivery truck trailer motorcycle evehicle custom1 custom2" speed="29.06" length="8.16" shape="10399.66,1177.50 10391.66,1177.48"/>
        <lane id=":123456270-AddedOffRampNode_0_4" index="4" allow="private emergency authority army vip passenger hov taxi bus coach delivery truck trailer motorcycle evehicle custom1 custom2" speed="29.06" length="8.16" shape="10399.67,1174.30 10391.67,1174.28"/>
    </edge>
    <edge id=":123456277-AddedOffRampNode_0" function="internal">
        <lane id=":123456277-AddedOffRampNode_0_0" index="0" allow="private emergency authority army vip passenger hov taxi bus coach delivery truck trailer motorcycle evehicle custom1 custom2" speed="29.06" length="8.10" shape="889.54,1013.71 887.13,1013.02 885.26,1013.29 883.38,1013.56 880.97,1012.87"/>
        <lane id=":123456277-AddedOffRampNode_0_1" index="1" allow="private emergency authority army vip passenger hov taxi bus coach delivery truck trailer motorcycle evehicle custom1 custom2" speed="29.06" length="8.10" shape="889.54,1013.71 882.44,1010.03"/>
        <lane id=":123456277-AddedOffRampNode_0_2" index="2" allow="private emergency authority army vip passenger hov taxi bus coach delivery truck trailer motorcycle evehicle custom1 custom2" speed="29.06" length="8.10" shape="891.01,1010.86 883.91,1007.18"/>
        <lane id=":123456277-AddedOffRampNode_0_3" index="3" allow="private emergency authority army vip passenger hov taxi bus coach delivery truck trailer motorcycle evehicle custom1 custom2" speed="29.06" length="8.10" shape="892.48,1008.02 885.38,1004.34"/>
        <lane id=":123456277-AddedOffRampNode_0_4" index="4" allow="private emergency authority army vip passenger hov taxi bus coach delivery truck trailer motorcycle evehicle custom1 custom2" speed="29.06" length="8.10" shape="893.95,1005.18 886.85,1001.50"/>
        <lane id=":123456277-AddedOffRampNode_0_5" index="5" allow="private emergency authority army vip passenger hov taxi bus coach delivery truck trailer motorcycle evehicle custom1 custom2" speed="29.06" length="8.10" shape="895.43,1002.34 888.32,998.66"/>
        <lane id=":123456277-AddedOffRampNode_0_6" index="6" allow="private emergency authority army vip passenger hov taxi bus coach delivery truck trailer motorcycle evehicle custom1 custom2" speed="29.06" length="8.10" shape="896.90,999.50 889.79,995.82"/>
        <lane id=":123456277-AddedOffRampNode_0_7" index="7" allow="private emergency authority army vip passenger hov taxi bus coach delivery truck trailer motorcycle evehicle custom1 custom2" speed="29.06" length="8.10" shape="898.37,996.65 891.26,992.97"/>
    </edge>
    <edge id=":123456317-AddedOffRampNode_0" function="internal">
        <lane id=":123456317-AddedOffRampNode_0_0" index="0" allow="private emergency authority army vip passenger hov taxi bus coach delivery truck trailer motorcycle evehicle custom1 custom2" speed="22.22" length="8.20" shape="1847.08,1338.55 1844.65,1339.18 1843.17,1340.35 1841.69,1341.53 1839.25,1342.16"/>
        <lane id=":123456317-AddedOffRampNode_0_1" index="1" allow="private emergency authority army vip passenger hov taxi bus coach delivery truck trailer motorcycle evehicle custom1 custom2" speed="22.22" length="8.20" shape="1847.08,1338.55 1839.09,1338.96"/>
        <lane id=":123456317-AddedOffRampNode_0_2" index="2" allow="private emergency authority army vip passenger hov taxi bus coach delivery truck trailer motorcycle evehicle custom1 custom2" speed="22.22" length="8.20" shape="1846.91,1335.35 1838.92,1335.77"/>
        <lane id=":123456317-AddedOffRampNode_0_3" index="3" allow="private emergency authority army vip passenger hov taxi bus coach delivery truck trailer motorcycle evehicle custom1 custom2" speed="22.22" length="8.20" shape="1846.75,1332.16 1838.76,1332.57"/>
    </edge>
    <edge id=":123951213-AddedOffRampNode_0" function="internal">
        <lane id=":123951213-AddedOffRampNode_0_0" index="0" allow="private emergency authority army vip passenger hov taxi bus coach delivery truck trailer motorcycle evehicle custom1 custom2" speed="39.44" length="8.13" shape="8130.51,5351.39 8128.02,5351.67 8126.39,5352.63 8124.76,5353.59 8122.26,5353.87"/>
        <lane id=":123951213-AddedOffRampNode_0_1" index="1" allow="private emergency authority army vip passenger hov taxi bus coach delivery truck trailer motorcycle evehicle custom1 custom2" speed="39.44" length="8.13" shape="8130.51,5351.39 8122.54,5350.68"/>
        <lane id=":123951213-AddedOffRampNode_0_2" index="2" allow="private emergency authority army vip passenger hov taxi bus coach delivery truck trailer motorcycle evehicle custom1 custom2" speed="39.44" length="8.13" shape="8130.79,5348.20 8122.83,5347.49"/>
        <lane id=":123951213-AddedOffRampNode_0_3" index="3" allow="private emergency authority army vip passenger hov taxi bus coach delivery truck trailer motorcycle evehicle custom1 custom2" speed="39.44" length="8.13" shape="8131.07,5345.01 8123.11,5344.31"/>
        <lane id=":123951213-AddedOffRampNode_0_4" index="4" allow="private emergency authority army vip passenger hov taxi bus coach delivery truck trailer motorcycle evehicle custom1 custom2" speed="39.44" length="8.13" shape="8131.35,5341.82 8123.39,5341.12"/>
        <lane id=":123951213-AddedOffRampNode_0_5" index="5" allow="private emergency authority army vip passenger hov taxi bus coach delivery truck trailer motorcycle evehicle custom1 custom2" speed="39.44" length="8.13" shape="8131.63,5338.63 8123.67,5337.93"/>
    </edge>
    <edge id=":123951216-AddedOffRampNode_0" function="internal">
        <lane id=":123951216-AddedOffRampNode_0_0" index="0" allow="private emergency authority army vip passenger hov taxi bus coach delivery truck trailer motorcycle evehicle custom1 custom2" speed="39.44" length="8.13" shape="8372.08,5308.33 8374.56,5307.92 8376.13,5306.87 8377.71,5305.83 8380.19,5305.42"/>
        <lane id=":123951216-AddedOffRampNode_0_1" index="1" allow="private emergency authority army vip passenger hov taxi bus coach delivery truck trailer motorcycle evehicle custom1 custom2" speed="39.44" length="8.13" shape="8372.08,5308.33 8380.07,5308.61"/>
        <lane id=":123951216-AddedOffRampNode_0_2" index="2" allow="private emergency authority army vip passenger hov taxi bus coach delivery truck trailer motorcycle evehicle custom1 custom2" speed="39.44" length="8.13" shape="8371.97,5311.53 8379.96,5311.81"/>
        <lane id=":123951216-AddedOffRampNode_0_3" index="3" allow="private emergency authority army vip passenger hov taxi bus coach delivery truck trailer motorcycle evehicle custom1 custom2" speed="39.44" length="8.13" shape="8371.85,5314.73 8379.85,5315.01"/>
        <lane id=":123951216-AddedOffRampNode_0_4" index="4" allow="private emergency authority army vip passenger hov taxi bus coach delivery truck trailer motorcycle evehicle custom1 custom2" speed="39.44" length="8.13" shape="8371.74,5317.93 8379.74,5318.21"/>
        <lane id=":123951216-AddedOffRampNode_0_5" index="5" allow="private emergency authority army vip passenger hov taxi bus coach delivery truck trailer motorcycle evehicle custom1 custom2" speed="39.44" length="8.13" shape="8371.63,5321.13 8379.62,5321.41"/>
    </edge>
    <edge id=":124356711-AddedOffRampNode_0" function="internal">
        <lane id=":124356711-AddedOffRampNode_0_0" index="0" allow="private emergency authority army vip passenger hov taxi bus coach delivery truck trailer motorcycle evehicle custom1 custom2" speed="29.06" length="8.13" shape="1696.23,2795.14 1695.17,2792.86 1693.74,2791.62 1692.32,2790.37 1691.26,2788.09"/>
        <lane id=":124356711-AddedOffRampNode_0_1" index="1" allow="private emergency authority army vip passenger hov taxi bus coach delivery truck trailer motorcycle evehicle custom1 custom2" speed="29.06" length="8.13" shape="1696.23,2795.14 1694.38,2787.36"/>
        <lane id=":124356711-AddedOffRampNode_0_2" index="2" allow="private emergency authority army vip passenger hov taxi bus coach delivery truck trailer motorcycle evehicle custom1 custom2" speed="29.06" length="8.13" shape="1699.34,2794.40 1697.49,2786.62"/>
        <lane id=":124356711-AddedOffRampNode_0_3" index="3" allow="private emergency authority army vip passenger hov taxi bus coach delivery truck trailer motorcycle evehicle custom1 custom2" speed="29.06" length="8.13" shape="1702.45,2793.66 1700.60,2785.88"/>
        <lane id=":124356711-AddedOffRampNode_0_4" index="4" allow="private emergency authority army vip passenger hov taxi bus coach delivery truck trailer motorcycle evehicle custom1 custom2" speed="29.06" length="8.13" shape="1705.57,2792.92 1703.72,2785.14"/>
        <lane id=":124356711-AddedOffRampNode_0_5" index="5" allow="private emergency authority army vip passenger hov taxi bus coach delivery truck trailer motorcycle evehicle custom1 custom2" speed="29.06" length="8.13" shape="1708.68,2792.19 1706.83,2784.40"/>
    </edge>
    <edge id=":124356714#1-AddedOnRampNode_0" function="internal">
        <lane id=":124356714#1-AddedOnRampNode_0_0" index="0" allow="private emergency authority army vip passenger hov taxi bus coach delivery truck trailer motorcycle evehicle custom1 custom2" speed="29.06" length="8.00" shape="2674.59,6014.80 2675.85,6022.70"/>
        <lane id=":124356714#1-AddedOnRampNode_0_1" index="1" allow="private emergency authority army vip passenger hov taxi bus coach delivery truck trailer motorcycle evehicle custom1 custom2" speed="29.06" length="8.00" shape="2671.43,6015.31 2672.69,6023.21"/>
        <lane id=":124356714#1-AddedOnRampNode_0_2" index="2" allow="private emergency authority army vip passenger hov taxi bus coach delivery truck trailer motorcycle evehicle custom1 custom2" speed="29.06" length="8.00" shape="2668.27,6015.81 2669.53,6023.71"/>
        <lane id=":124356714#1-AddedOnRampNode_0_3" index="3" allow="private emergency authority army vip passenger hov taxi bus coach delivery truck trailer motorcycle evehicle custom1 custom2" speed="29.06" length="8.00" shape="2665.11,6016.32 2666.37,6024.22"/>
    </edge>
    <edge id=":124356717-AddedOnRampNode_0" function="internal">
        <lane id=":124356717-AddedOnRampNode_0_0" index="0" allow="private emergency authority army vip passenger hov taxi bus coach delivery truck trailer motorcycle evehicle custom1 custom2" speed="24.59" length="8.00" shape="1113.16,615.41 1109.87,608.12"/>
        <lane id=":124356717-AddedOnRampNode_0_1" index="1" allow="private emergency authority army vip passenger hov taxi bus coach delivery truck trailer motorcycle evehicle custom1 custom2" speed="24.59" length="8.00" shape="1116.08,614.10 1112.78,606.80"/>
        <lane id=":124356717-AddedOnRampNode_0_2" index="2" allow="private emergency authority army vip passenger hov taxi bus coach delivery truck trailer motorcycle evehicle custom1 custom2" speed="24.59" length="8.00" shape="1118.99,612.78 1115.70,605.49"/>
        <lane id=":124356717-AddedOnRampNode_0_3" index="3" allow="private emergency authority army vip passenger hov taxi bus coach delivery truck trailer motorcycle evehicle custom1 custom2" speed="24.59" length="8.00" shape="1121.91,611.46 1118.62,604.17"/>
    </edge>
    <edge id=":124356723-AddedOnRampNode_0" function="internal">
        <lane id=":124356723-AddedOnRampNode_0_0" index="0" allow="private emergency authority army vip passenger hov taxi bus coach delivery truck trailer motorcycle evehicle custom1 custom2" speed="39.44" length="8.00" shape="1477.67,2021.01 1479.43,2028.82"/>
        <lane id=":124356723-AddedOnRampNode_0_1" index="1" allow="private emergency authority army vip passenger hov taxi bus coach delivery truck trailer motorcycle evehicle custom1 custom2" speed="39.44" length="8.00" shape="1474.55,2021.72 1476.31,2029.52"/>
        <lane id=":124356723-AddedOnRampNode_0_2" index="2" allow="private emergency authority army vip passenger hov taxi bus coach delivery truck trailer motorcycle evehicle custom1 custom2" speed="39.44" length="8.00" shape="1471.43,2022.42 1473.19,2030.23"/>
        <lane id=":124356723-AddedOnRampNode_0_3" index="3" allow="private emergency authority army vip passenger hov taxi bus coach delivery truck trailer motorcycle evehicle custom1 custom2" speed="39.44" length="8.00" shape="1468.31,2023.13 1470.07,2030.93"/>
        <lane id=":124356723-AddedOnRampNode_0_4" index="4" allow="private emergency authority army vip passenger hov taxi bus coach delivery truck trailer motorcycle evehicle custom1 custom2" speed="39.44" length="8.00" shape="1465.19,2023.83 1466.95,2031.64"/>
        <lane id=":124356723-AddedOnRampNode_0_5" index="5" allow="private emergency authority army vip passenger hov taxi bus coach delivery truck trailer motorcycle evehicle custom1 custom2" speed="39.44" length="8.00" shape="1462.07,2024.54 1463.83,2032.34"/>
    </edge>
    <edge id=":1341338460_0" function="internal">
        <lane id=":1341338460_0_0" index="0" allow="private emergency authority army vip passenger hov taxi bus coach delivery truck trailer motorcycle evehicle custom1 custom2" speed="25.64" length="2.66" shape="7947.16,1193.70 7944.50,1193.75"/>
    </edge>
    <edge id=":1341338460_1" function="internal">
        <lane id=":1341338460_1_0" index="0" allow="private emergency authority army vip passenger hov taxi bus coach delivery truck trailer motorcycle evehicle custom1 custom2" speed="29.06" length="3.02" shape="7947.17,1190.50 7944.39,1190.51"/>
        <lane id=":1341338460_1_1" index="1" allow="private emergency authority army vip passenger hov taxi bus coach delivery truck trailer motorcycle evehicle custom1 custom2" speed="29.06" length="3.02" shape="7947.17,1187.30 7944.27,1187.31"/>
        <lane id=":1341338460_1_2" index="2" allow="private emergency authority army vip passenger hov taxi bus coach delivery truck trailer motorcycle evehicle custom1 custom2" speed="29.06" length="3.02" shape="7947.18,1184.10 7944.16,1184.11"/>
        <lane id=":1341338460_1_3" index="3" allow="private emergency authority army vip passenger hov taxi bus coach delivery truck trailer motorcycle evehicle custom1 custom2" speed="29.06" length="3.02" shape="7947.18,1180.90 7944.05,1180.91"/>
        <lane id=":1341338460_1_4" index="4" allow="private emergency authority army vip passenger hov taxi bus coach delivery truck trailer motorcycle evehicle custom1 custom2" speed="29.06" length="3.02" shape="7947.19,1177.70 7943.93,1177.71"/>
    </edge>
    <edge id=":1361122125_0" function="internal">
        <lane id=":1361122125_0_0" index="0" allow="private emergency authority army vip passenger hov taxi bus coach delivery truck trailer motorcycle evehicle custom1 custom2" speed="25.64" length="4.71" shape="4724.01,1315.21 4722.62,1315.04 4721.67,1314.87 4720.74,1314.65 4719.39,1314.30"/>
    </edge>
    <edge id=":1361122125_1" function="internal">
        <lane id=":1361122125_1_0" index="0" allow="private emergency authority army vip passenger hov taxi bus coach delivery truck trailer motorcycle evehicle custom1 custom2" speed="29.06" length="3.22" shape="4724.37,1312.03 4720.12,1311.40"/>
        <lane id=":1361122125_1_1" index="1" allow="private emergency authority army vip passenger hov taxi bus coach delivery truck trailer motorcycle evehicle custom1 custom2" speed="29.06" length="3.22" shape="4724.73,1308.85 4720.90,1308.29"/>
        <lane id=":1361122125_1_2" index="2" allow="private emergency authority army vip passenger hov taxi bus coach delivery truck trailer motorcycle evehicle custom1 custom2" speed="29.06" length="3.22" shape="4725.09,1305.67 4721.69,1305.18"/>
        <lane id=":1361122125_1_3" index="3" allow="private emergency authority army vip passenger hov taxi bus coach delivery truck trailer motorcycle evehicle custom1 custom2" speed="29.06" length="3.22" shape="4725.45,1302.49 4722.47,1302.07"/>
        <lane id=":1361122125_1_4" index="4" allow="private emergency authority army vip passenger hov taxi bus coach delivery truck trailer motorcycle evehicle custom1 custom2" speed="29.06" length="3.22" shape="4725.81,1299.31 4723.26,1298.96"/>
        <lane id=":1361122125_1_5" index="5" allow="private emergency authority army vip passenger hov taxi bus coach delivery truck trailer motorcycle evehicle custom1 custom2" speed="29.06" length="3.22" shape="4726.17,1296.13 4724.05,1295.85"/>
    </edge>
    <edge id=":1361122135_0" function="internal">