<configuration xmlns:xsi="http://www.w3.org/2001/XMLSchema-instance" xsi:noNamespaceSchemaLocation="http://sumo.dlr.de/xsd/duarouterConfiguration.xsd">

    <input>
        <net-file value="Traffic_Net.net.xml"/>
        <route-files value="Traffic_Net_Flow.rou.xml"/>
        <additional-files value="Traffic_Net.add.xml"/>
        <junction-taz value="true"/>
    </input>

    <time>
        <begin value="0"/>
        <end value="14400"/>
    </time>

</configuration>