<?xml version="1.0" encoding="UTF-8"?>

<!-- generated on 2024-05-16 17:04:47 by Eclipse SUMO duarouter Version 1.19.0
<configuration xmlns:xsi="http://www.w3.org/2001/XMLSchema-instance" xsi:noNamespaceSchemaLocation="http://sumo.dlr.de/xsd/duarouterConfiguration.xsd">

    <input>
        <net-file value="Network_Files\Traffic_Net.net.xml"/>
        <route-files value="Network_Files\Traffic_Net.trips.xml"/>
    </input>

    <output>
        <output-file value="Network_Files\Traffic_Net.rou.xml"/>
    </output>

    <report>
        <ignore-errors value="true"/>
    </report>

</configuration>
-->

<routes xmlns:xsi="http://www.w3.org/2001/XMLSchema-instance" xsi:noNamespaceSchemaLocation="http://sumo.dlr.de/xsd/routes_file.xsd">
    <vehicle id="0" depart="0.00">
        <route edges="E55 E11.291 E11.459 E12 E10 E10.644 E10.876"/>
    </vehicle>
    <vehicle id="11" depart="11.00">
        <route edges="E24 E25 E26 E6 E6.1105 E6.1344 E74 E87 E78 E71 E71.845 E71.1189 E71.1189.1353 E118"/>
    </vehicle>
    <vehicle id="15" depart="15.00">
        <route edges="E74 E87 E78 E71 E71.845 E71.1189 E71.1189.1353 E71.1189.1656 E94 E103 E99 E37 E37.815 E37.1085 E47 E53 E50 E8 E8.280 E8.532 E30 E32 E26 E6 E6.1105 E6.1344 E67"/>
    </vehicle>
    <vehicle id="16" depart="16.00">
        <route edges="E41 E51 E50 E8 E8.280 E8.532 E30 E32 E26 E6 E6.1105 E6.1344 E74 E87 E78 E71 E71.845 E71.1189 E71.1189.1353 E71.1189.1656 E94 E98 E97 E95"/>
    </vehicle>
    <vehicle id="19" depart="19.00">
        <route edges="E8.532 E30 E32 E26 E6 E6.1105 E6.1344 E74 E87 E78 E71 E71.845 E71.1189 E71.1189.1353 E71.1189.1656 E94 E103 E99 E37 E37.815 E37.1085 E47 E49"/>
    </vehicle>
    <vehicle id="23" depart="23.00">
        <route edges="E11 E11.291 E11.459 E14 E16 E18 E2 E2.343"/>
    </vehicle>
    <vehicle id="27" depart="27.00">
        <route edges="E55.336 E34 E34.1080 E34.1452 E41 E52"/>
    </vehicle>
    <vehicle id="31" depart="31.00">
        <route edges="E44 E45 E42 E35 E35.820 E35.1093 E63"/>
    </vehicle>
    <vehicle id="34" depart="34.00">
        <route edges="E20 E23 E19"/>
    </vehicle>
    <vehicle id="39" depart="39.00">
        <route edges="E16"/>
    </vehicle>
    <vehicle id="45" depart="45.00">
        <route edges="E11.291 E11.459 E12 E10 E10.644 E10.876 E56"/>
    </vehicle>
    <vehicle id="49" depart="49.00">
        <route edges="E94 E103 E99 E37 E37.815 E37.1085 E47 E53 E50 E8 E8.280"/>
    </vehicle>
    <vehicle id="53" depart="53.00">
        <route edges="E11.459 E14 E16 E18 E2 E2.343 E2.599 E38 E43 E42 E35"/>
    </vehicle>
    <vehicle id="55" depart="55.00">
        <route edges="E81 E75 E11 E11.291 E11.459 E14 E16 E18"/>
    </vehicle>
    <vehicle id="59" depart="59.00">
        <route edges="E50 E8 E8.280 E8.532 E30 E32 E26 E6 E6.1105 E6.1344 E74 E87 E78 E71 E71.845 E71.1189 E71.1189.1353 E118"/>
    </vehicle>
    <vehicle id="62" depart="62.00">
        <route edges="E0 E24"/>
    </vehicle>
    <vehicle id="73" depart="73.00">
        <route edges="E41 E51 E50 E8 E8.280 E8.532 E30 E32 E26 E6 E6.1105 E6.1344 E67"/>
    </vehicle>
    <vehicle id="75" depart="75.00">
        <route edges="E99 E37 E37.815 E37.1085 E47 E53 E50 E8 E8.280 E8.532 E30 E32 E26 E6 E6.1105 E6.1344 E74 E87 E78 E71 E71.845 E59"/>
    </vehicle>
    <vehicle id="79" depart="79.00">
        <route edges="E134 E34.1080 E133"/>
    </vehicle>
    <vehicle id="84" depart="84.00">
        <route edges="E129 E66.2091 E66.2420 E79 E84 E75 E11 E11.291 E11.459 E14 E16 E18 E2 E2.343 E2.599 E38 E40 E39 E36 E36.514 E36.687 E110 E113"/>
    </vehicle>
    <vehicle id="92" depart="92.00">
        <route edges="E30 E32 E26"/>
    </vehicle>
    <vehicle id="94" depart="94.00">
        <route edges="E123 E6.1105 E6.1344 E74 E87 E78 E71 E71.845 E71.1189 E71.1189.1353 E71.1189.1656 E94 E103 E99 E37 E37.815 E37.1085 E33 E35 E35.820"/>
    </vehicle>
    <vehicle id="96" depart="96.00">
        <route edges="E137 E3.1385 E3.1703 E4 E6 E6.1105 E6.1344 E74 E87"/>
    </vehicle>
    <vehicle id="97" depart="97.00">
        <route edges="E34.1452 E41 E51 E50 E8 E8.280 E8.532"/>
    </vehicle>
    <vehicle id="99" depart="99.00">
        <route edges="E99 E37 E37.815 E37.1085 E47 E53 E50 E8 E8.280 E8.532 E30 E32 E26 E6 E6.1105 E6.1344 E74 E87 E78"/>
    </vehicle>
    <vehicle id="100" depart="100.00">
        <route edges="E94 E103 E99 E37 E37.815 E37.1085 E47 E53 E50 E8 E8.280 E8.532 E30 E32 E26 E6 E6.1105 E6.1344 E67 E88"/>
    </vehicle>
    <vehicle id="104" depart="104.00">
        <route edges="E3 E3.1385 E3.1703 E4 E6 E6.1105 E6.1344 E74 E87 E78 E71 E71.845 E71.1189 E71.1189.1353 E71.1189.1656 E94 E98 E97"/>
    </vehicle>
    <vehicle id="109" depart="109.00">
        <route edges="E116 E57 E3 E3.1385 E3.1703 E20"/>
    </vehicle>
    <vehicle id="110" depart="110.00">
        <route edges="E94 E103 E99 E37 E37.815 E37.1085 E47 E49"/>
    </vehicle>
    <vehicle id="113" depart="113.00">
        <route edges="E37.815 E37.1085 E47 E53 E50 E8"/>
    </vehicle>
    <vehicle id="117" depart="117.00">
        <route edges="E134 E34.1080 E34.1452 E27 E36 E36.514 E36.687 E110 E111"/>
    </vehicle>
    <vehicle id="121" depart="121.00">
        <route edges="E4 E6 E6.1105 E6.1344 E74 E87 E78 E71 E71.845 E71.1189 E71.1189.1353 E71.1189.1656 E94 E103 E99 E37 E37.815 E37.1085 E47 E53 E50 E8 E8.280 E8.532 E9"/>
    </vehicle>
    <vehicle id="124" depart="124.00">
        <route edges="E6 E6.1105 E6.1344 E74 E87 E78 E71 E71.845 E71.1189 E71.1189.1353 E71.1189.1656 E94 E103 E99 E37 E37.815 E37.1085 E47 E49 E48 E21"/>
    </vehicle>
    <vehicle id="127" depart="127.00">
        <route edges="E99"/>
    </vehicle>
    <vehicle id="130" depart="130.00">
        <route edges="E81"/>
    </vehicle>
    <vehicle id="133" depart="133.00">
        <route edges="E51 E50 E8 E8.280 E8.532 E30 E32 E26 E6 E6.1105 E6.1344 E74 E87 E78 E71 E71.845 E71.1189 E71.1189.1353 E71.1189.1656 E94 E98"/>
    </vehicle>
    <vehicle id="135" depart="135.00">
        <route edges="E75 E11 E11.291 E11.459 E14 E16 E18 E2 E2.343 E2.599 E13 E21"/>
    </vehicle>
    <vehicle id="140" depart="140.00">
        <route edges="E66.2420 E79 E84 E75 E11 E11.291 E11.459 E14 E16 E18 E2 E2.343 E2.599 E13"/>
    </vehicle>
    <vehicle id="143" depart="143.00">
        <route edges="E79 E84 E75 E11"/>
    </vehicle>
    <vehicle id="145" depart="145.00">
        <route edges="E0 E24 E25 E26 E6 E6.1105 E6.1344 E74 E87 E78 E71 E71.845 E71.1189 E71.1189.1353"/>
    </vehicle>
    <vehicle id="148" depart="148.00">
        <route edges="E34 E34.1080 E34.1452 E41 E51 E50 E8 E8.280 E8.532 E30 E31 E29 E10"/>
    </vehicle>
    <vehicle id="151" depart="151.00">
        <route edges="E78 E71 E71.845 E71.1189 E71.1189.1353 E71.1189.1656 E94 E103 E99 E37 E37.815 E37.1085 E47 E49"/>
    </vehicle>
    <vehicle id="159" depart="159.00">
        <route edges="E116 E57 E3 E3.1385 E3.1703 E4 E6 E6.1105 E6.1344 E67 E88"/>
    </vehicle>
    <vehicle id="160" depart="160.00">
        <route edges="E8.532 E30 E32 E26 E6 E6.1105 E6.1344 E74 E87 E78 E71 E71.845 E71.1189 E71.1189.1353 E71.1189.1656 E94 E98 E97 E95"/>
    </vehicle>
    <vehicle id="179" depart="179.00">
        <route edges="E11.291 E11.459 E14 E16 E18 E2 E2.343 E2.599 E38 E43 E42 E35"/>
    </vehicle>
    <vehicle id="182" depart="182.00">
        <route edges="E3.1385 E3.1703 E4 E6 E6.1105 E6.1344 E74 E87 E78 E71 E71.845 E71.1189 E71.1189.1353 E71.1189.1656 E94 E103 E99 E37 E37.815 E37.1085 E47 E49"/>
    </vehicle>
    <vehicle id="184" depart="184.00">
        <route edges="E0 E24 E25 E26 E6 E6.1105 E6.1344 E67 E88"/>
    </vehicle>
    <vehicle id="190" depart="190.00">
        <route edges="E66.2420 E79 E84 E75 E11 E11.291 E11.459 E14 E16 E18 E2 E2.343 E2.599 E13 E21"/>
    </vehicle>
    <vehicle id="197" depart="197.00">
        <route edges="E0 E1 E2 E2.343 E2.599"/>
    </vehicle>
    <vehicle id="198" depart="198.00">
        <route edges="E34 E34.1080 E34.1452 E41 E51 E50 E8 E8.280 E8.532 E30 E32 E26 E6 E6.1105 E6.1344 E74 E87 E78 E71 E71.845 E71.1189 E71.1189.1353 E71.1189.1656 E94 E103 E99 E37 E37.815 E37.1085 E47 E49"/>
    </vehicle>
    <vehicle id="204" depart="204.00">
        <route edges="E54 E71.845 E71.1189 E71.1189.1353 E71.1189.1656 E94 E103 E99 E37 E37.815 E37.1085 E47 E53 E50 E8 E8.280 E8.532 E30 E32 E26"/>
    </vehicle>
    <vehicle id="206" depart="206.00">
        <route edges="E6 E6.1105 E6.1344 E74 E87 E78 E71 E71.845 E71.1189 E71.1189.1353 E71.1189.1656 E94 E103 E99 E37 E37.815 E37.1085 E47 E53 E50 E8 E8.280 E8.532 E30 E31 E29 E10 E10.644 E136"/>
    </vehicle>
    <vehicle id="208" depart="208.00">
        <route edges="E137 E3.1385 E3.1703 E4 E6 E6.1105 E6.1344 E74 E87 E78 E71 E71.845 E71.1189 E71.1189.1353 E71.1189.1656 E94 E103 E99 E37"/>
    </vehicle>
    <vehicle id="210" depart="210.00">
        <route edges="E32 E26 E6 E6.1105 E6.1344 E74 E87 E78 E71 E71.845 E71.1189 E71.1189.1353 E71.1189.1656 E94 E103 E99 E37 E37.815 E37.1085 E33 E35 E35.820 E35.1093 E114 E56"/>
    </vehicle>
    <vehicle id="214" depart="214.00">
        <route edges="E70 E71 E71.845 E71.1189"/>
    </vehicle>
    <vehicle id="218" depart="218.00">
        <route edges="E137 E3.1385 E3.1703 E4 E6 E6.1105 E6.1344 E74 E87 E78 E71 E71.845 E71.1189 E71.1189.1353 E71.1189.1656 E94 E103 E99 E37 E37.815 E37.1085 E47 E53 E50 E8"/>
    </vehicle>
    <vehicle id="220" depart="220.00">
        <route edges="E6 E6.1105 E6.1344 E74 E87 E78 E71 E71.845 E71.1189 E71.1189.1353 E71.1189.1656 E94 E98"/>
    </vehicle>
    <vehicle id="223" depart="223.00">
        <route edges="E66.2420 E79 E84 E75 E11 E11.291 E11.459 E14 E16 E18 E2 E2.343 E2.599 E38 E40 E39"/>
    </vehicle>
    <vehicle id="225" depart="225.00">
        <route edges="E84 E75 E11 E11.291 E11.459 E14 E17 E19 E7"/>
    </vehicle>
    <vehicle id="233" depart="233.00">
        <route edges="E134 E34.1080 E34.1452 E41 E51 E50 E8 E8.280 E8.532 E30 E32 E26 E6 E6.1105 E6.1344 E74 E86 E72 E64"/>
    </vehicle>
    <vehicle id="239" depart="239.00">
        <route edges="E8.280 E8.532 E30 E32 E26 E6 E6.1105 E6.1344 E74 E87 E78 E71 E71.845 E71.1189"/>
    </vehicle>
    <vehicle id="247" depart="247.00">
        <route edges="E24 E25 E26 E6 E6.1105 E6.1344 E74 E87 E78 E71 E71.845 E71.1189 E71.1189.1353 E71.1189.1656 E94 E103 E99 E37 E37.815 E61"/>
    </vehicle>
    <vehicle id="251" depart="251.00">
        <route edges="E3.1703 E4 E6 E6.1105 E6.1344 E74 E87 E78 E71 E71.845 E71.1189 E71.1189.1353 E71.1189.1656 E94 E103 E99 E37 E37.815 E37.1085 E47"/>
    </vehicle>
    <vehicle id="261" depart="261.00">
        <route edges="E55.336 E34 E34.1080 E34.1452 E41 E51 E50 E8 E8.280 E8.532 E30 E32 E26 E6 E6.1105 E6.1344 E74 E87 E78 E71 E71.845 E71.1189 E71.1189.1353 E71.1189.1656"/>
    </vehicle>
    <vehicle id="264" depart="264.00">
        <route edges="E10 E10.644 E10.876 E56 E115"/>
    </vehicle>
    <vehicle id="267" depart="267.00">
        <route edges="E62 E34 E34.1080 E34.1452 E41 E51 E50 E8 E8.280 E8.532 E30 E32 E26 E6 E6.1105 E6.1344 E74 E87 E78 E71 E71.845 E71.1189"/>
    </vehicle>
    <vehicle id="269" depart="269.00">
        <route edges="E69 E73 E81 E75 E11 E11.291 E11.459 E14 E16 E18 E2 E2.343 E2.599 E38 E40 E39 E36 E36.514 E36.687 E110"/>
    </vehicle>
    <vehicle id="271" depart="271.00">
        <route edges="E11.291 E11.459 E12 E10 E10.644 E10.876"/>
    </vehicle>
    <vehicle id="275" depart="275.00">
        <route edges="E60 E37.815 E37.1085 E33 E35 E35.820 E35.1093 E114 E56"/>
    </vehicle>
    <vehicle id="288" depart="288.00">
        <route edges="E41 E51 E50 E8 E8.280 E8.532 E30 E32 E26 E6 E6.1105 E6.1344 E74 E87 E78 E71 E71.845 E71.1189 E71.1189.1353 E71.1189.1656 E94 E103 E99 E37 E37.815 E37.1085"/>
    </vehicle>
    <vehicle id="289" depart="289.00">
        <route edges="E34.1080 E34.1452 E41 E51 E50 E8 E8.280 E8.532 E30 E32 E26 E6 E6.1105 E6.1344 E67"/>
    </vehicle>
    <vehicle id="292" depart="292.00">
        <route edges="E81 E75 E11 E11.291 E11.459 E14 E16"/>
    </vehicle>
    <vehicle id="295" depart="295.00">
        <route edges="E8 E8.280 E8.532 E30 E32 E26 E6 E6.1105 E124"/>
    </vehicle>
    <vehicle id="301" depart="301.00">
        <route edges="E37 E37.815 E37.1085 E47 E53 E50 E8 E8.280 E8.532 E30 E32 E26 E6 E6.1105 E6.1344 E74 E87 E78 E71"/>
    </vehicle>
    <vehicle id="302" depart="302.00">
        <route edges="E60 E37.815 E37.1085 E47 E53 E50 E8 E8.280 E8.532 E30 E32 E26 E6 E6.1105 E6.1344 E74 E87 E78 E71 E71.845 E59"/>
    </vehicle>
    <vehicle id="303" depart="303.00">
        <route edges="E37 E37.815 E37.1085 E47 E53 E50 E8 E8.280 E8.532 E30 E32 E26 E6 E6.1105 E6.1344 E74 E86 E72"/>
    </vehicle>
    <vehicle id="306" depart="306.00">
        <route edges="E47 E53 E50 E8 E8.280 E8.532 E30 E32 E26 E6 E6.1105 E6.1344 E74 E87 E78 E71 E71.845 E71.1189 E71.1189.1353 E71.1189.1656 E94 E103 E99 E37"/>
    </vehicle>
    <vehicle id="310" depart="310.00">
        <route edges="E14 E16 E18 E2 E2.343 E2.599 E38 E40 E39 E36 E36.514 E36.687 E110 E111"/>
    </vehicle>
    <vehicle id="312" depart="312.00">
        <route edges="E41 E51 E50 E8 E8.280 E8.532 E30 E32 E26 E6 E6.1105 E6.1344 E74 E87 E78 E71"/>
    </vehicle>
    <vehicle id="317" depart="317.00">
        <route edges="E123 E6.1105 E6.1344 E74 E87 E78 E71 E71.845 E71.1189 E71.1189.1353 E71.1189.1656 E94 E103 E99 E37 E37.815 E37.1085 E47 E53 E50 E8 E8.280 E8.532 E30 E31 E29 E10 E10.644 E136"/>
    </vehicle>
    <vehicle id="318" depart="318.00">
        <route edges="E12 E10 E10.644"/>
    </vehicle>
    <vehicle id="327" depart="327.00">
        <route edges="E76 E82 E78 E71 E71.845 E71.1189 E71.1189.1353 E71.1189.1656 E94 E103 E99 E37 E37.815 E37.1085 E47 E53 E50 E8 E8.280 E8.532 E30 E32"/>
    </vehicle>
    <vehicle id="329" depart="329.00">
        <route edges="E103 E99 E37 E37.815 E37.1085 E33 E35 E35.820 E35.1093 E114 E56 E115"/>
    </vehicle>
    <vehicle id="333" depart="333.00">
        <route edges="E71.845 E71.1189 E71.1189.1353 E71.1189.1656 E94 E103 E99 E37 E37.815 E37.1085 E47 E53 E50 E8 E8.280 E8.532 E30 E31 E29 E10 E10.644 E136"/>
    </vehicle>
    <vehicle id="334" depart="334.00">
        <route edges="E4 E6 E6.1105 E6.1344 E74 E87 E78 E71 E71.845 E71.1189 E71.1189.1353 E71.1189.1656 E94 E103 E99 E37 E37.815 E37.1085 E33 E35 E35.820"/>
    </vehicle>
    <vehicle id="335" depart="335.00">
        <route edges="E34.1452 E41 E51 E50 E8 E8.280"/>
    </vehicle>
    <vehicle id="337" depart="337.00">
        <route edges="E52"/>
    </vehicle>
    <vehicle id="340" depart="340.00">
        <route edges="E57 E3 E3.1385 E3.1703 E4 E6 E6.1105 E6.1344 E74 E87 E78 E71 E71.845 E71.1189 E71.1189.1353 E118"/>
    </vehicle>
    <vehicle id="342" depart="342.00">
        <route edges="E0 E1 E2 E2.343 E2.599 E38 E43 E42 E35 E35.820"/>
    </vehicle>
    <vehicle id="344" depart="344.00">
        <route edges="E134 E34.1080 E34.1452 E27 E36 E36.514 E36.687 E110 E111 E109 E66"/>
    </vehicle>
    <vehicle id="346" depart="346.00">
        <route edges="E6.1344 E67 E88"/>
    </vehicle>
    <vehicle id="347" depart="347.00">
        <route edges="E71.845 E71.1189 E71.1189.1353 E71.1189.1656 E94 E103 E99 E37 E37.815 E37.1085 E33 E35 E35.820 E35.1093 E114 E56"/>
    </vehicle>
    <vehicle id="348" depart="348.00">
        <route edges="E57 E55.336 E34 E34.1080 E34.1452 E41 E51 E50 E8 E8.280 E8.532 E9"/>
    </vehicle>
    <vehicle id="353" depart="353.00">
        <route edges="E69 E70 E71 E71.845 E71.1189 E71.1189.1353 E71.1189.1656 E94 E103 E99 E37 E37.815 E37.1085 E47"/>
    </vehicle>
    <vehicle id="358" depart="358.00">
        <route edges="E100 E104 E99 E37 E37.815 E37.1085 E33 E35"/>
    </vehicle>
    <vehicle id="361" depart="361.00">
        <route edges="E78 E71 E71.845 E71.1189 E71.1189.1353 E71.1189.1656 E94 E103 E99 E37 E37.815 E37.1085 E47 E49 E48"/>
    </vehicle>
    <vehicle id="370" depart="370.00">
        <route edges="E6 E6.1105 E6.1344 E74 E87 E78 E71 E71.845 E71.1189 E71.1189.1353 E71.1189.1656 E94 E103 E99 E37 E37.815 E37.1085 E47 E53 E50 E8 E8.280"/>
    </vehicle>
    <vehicle id="380" depart="380.00">
        <route edges="E70 E71 E71.845 E71.1189 E71.1189.1353 E71.1189.1656 E94 E103 E99 E37 E37.815 E37.1085 E33 E35 E35.820 E35.1093 E114 E56"/>
    </vehicle>
    <vehicle id="398" depart="398.00">
        <route edges="E32 E26 E6 E6.1105 E6.1344 E74 E87 E78 E71 E71.845 E71.1189 E71.1189.1353 E71.1189.1656 E94 E103 E99 E37 E37.815 E37.1085 E47 E53 E50 E8 E8.280 E8.532 E9"/>
    </vehicle>
    <vehicle id="402" depart="402.00">
        <route edges="E37 E37.815 E37.1085 E33 E35 E35.820 E35.1093 E114 E56 E115"/>
    </vehicle>
    <vehicle id="408" depart="408.00">
        <route edges="E71.1189.1353 E71.1189.1656 E94 E103"/>
    </vehicle>
    <vehicle id="409" depart="409.00">
        <route edges="E69 E73 E81 E75 E11 E11.291 E11.459 E14 E16 E18 E2 E2.343 E2.599 E38 E40 E39 E36 E36.514 E36.687 E110 E111 E109 E66"/>
    </vehicle>
    <vehicle id="410" depart="410.00">
        <route edges="E74 E87 E78 E71 E71.845 E71.1189 E71.1189.1353 E71.1189.1656 E94 E103 E99 E37 E37.815 E37.1085 E47 E53 E50 E8 E8.280 E8.532 E30"/>
    </vehicle>
    <vehicle id="420" depart="420.00">
        <route edges="E24 E25 E26 E6 E6.1105 E6.1344 E74 E86 E72 E64"/>
    </vehicle>
    <vehicle id="421" depart="421.00">
        <route edges="E55.336 E34 E34.1080 E34.1452 E41 E51 E50 E8"/>
    </vehicle>
    <vehicle id="422" depart="422.00">
        <route edges="E8 E8.280"/>
    </vehicle>
    <vehicle id="423" depart="423.00">
        <route edges="E3 E3.1385 E3.1703 E20 E23"/>
    </vehicle>
    <vehicle id="427" depart="427.00">
        <route edges="E87 E78 E71 E71.845 E71.1189 E71.1189.1353 E71.1189.1656 E94 E103 E99"/>
    </vehicle>
    <vehicle id="428" depart="428.00">
        <route edges="E69 E73 E81 E75 E11 E11.291 E11.459 E14 E16 E18 E2 E2.343 E2.599 E38 E43 E42 E35"/>
    </vehicle>
    <vehicle id="432" depart="432.00">
        <route edges="E101 E100 E104 E99 E37 E37.815 E37.1085 E47 E53 E50 E8 E8.280 E8.532 E30 E32 E26 E6 E6.1105 E6.1344 E74 E86 E72"/>
    </vehicle>
    <vehicle id="440" depart="440.00">
        <route edges="E14 E17"/>
    </vehicle>
    <vehicle id="443" depart="443.00">
        <route edges="E116 E57 E3 E3.1385 E3.1703 E20 E22 E18 E2 E2.343 E2.599 E38 E43 E42 E35 E35.820 E35.1093"/>
    </vehicle>
    <vehicle id="451" depart="451.00">
        <route edges="E96 E93 E37 E37.815 E37.1085 E47 E53 E50 E8 E8.280 E8.532 E30 E32 E26 E6"/>
    </vehicle>
    <vehicle id="453" depart="453.00">
        <route edges="E6.1344 E74 E87 E78 E71 E71.845 E71.1189 E71.1189.1353 E71.1189.1656 E94 E103 E99 E37 E37.815 E37.1085 E47 E53 E50 E8 E8.280 E8.532 E9 E7"/>
    </vehicle>
    <vehicle id="463" depart="463.00">
        <route edges="E34.1452 E41 E51 E50 E8 E8.280 E8.532 E30 E32 E26 E6 E6.1105 E6.1344 E74 E87 E78 E71 E71.845 E71.1189 E71.1189.1353 E71.1189.1656 E94 E103 E99 E37 E37.815 E37.1085 E47 E49"/>
    </vehicle>
    <vehicle id="467" depart="467.00">
        <route edges="E41 E51 E50 E8 E8.280 E8.532 E30 E32 E26 E6 E6.1105 E6.1344 E74 E87 E78 E71 E71.845 E71.1189 E71.1189.1353 E71.1189.1656 E94"/>
    </vehicle>
    <vehicle id="470" depart="470.00">
        <route edges="E76 E82 E78 E71 E71.845 E71.1189 E71.1189.1353 E71.1189.1656 E94 E103 E99 E37 E37.815 E37.1085"/>
    </vehicle>
    <vehicle id="471" depart="471.00">
        <route edges="E74 E87 E78 E71 E71.845 E71.1189 E71.1189.1353 E71.1189.1656 E94 E103 E99 E37 E37.815 E37.1085 E47 E53 E50 E8 E8.280 E8.532 E9 E7"/>
    </vehicle>
    <vehicle id="473" depart="473.00">
        <route edges="E93 E37 E37.815 E37.1085 E33 E35 E35.820 E35.1093 E114"/>
    </vehicle>
    <vehicle id="474" depart="474.00">
        <route edges="E94 E103 E99 E37 E37.815 E37.1085 E47 E53 E50 E8 E8.280"/>
    </vehicle>
    <vehicle id="492" depart="492.00">
        <route edges="E6 E6.1105 E6.1344 E74 E87 E78 E71 E71.845 E71.1189 E71.1189.1353 E71.1189.1656 E94 E103 E99 E37 E37.815 E37.1085 E47 E53 E50 E8 E8.280 E8.532 E9 E7"/>
    </vehicle>
    <vehicle id="496" depart="496.00">
        <route edges="E37 E37.815 E37.1085 E33"/>
    </vehicle>
    <vehicle id="500" depart="500.00">
        <route edges="E11 E11.291 E11.459 E14 E16 E18 E2 E2.343 E2.599 E38 E43 E42 E35 E35.820 E35.1093 E63"/>
    </vehicle>
    <vehicle id="513" depart="513.00">
        <route edges="E0 E24 E25 E26 E6 E6.1105 E6.1344 E74 E87 E78 E71 E71.845 E71.1189 E71.1189.1353 E71.1189.1656 E94 E103 E99 E37 E37.815 E37.1085 E47 E53 E50 E8 E8.280"/>
    </vehicle>
    <vehicle id="515" depart="515.00">
        <route edges="E14 E16 E18 E2 E2.343 E2.599 E38 E40 E39 E36 E36.514 E122"/>
    </vehicle>
    <vehicle id="516" depart="516.00">
        <route edges="E57 E55.336 E34 E34.1080 E34.1452 E41 E51 E50 E8 E8.280 E8.532 E30 E31 E29 E10 E10.644 E10.876"/>
    </vehicle>
    <vehicle id="521" depart="521.00">
        <route edges="E69 E70 E71 E71.845 E71.1189 E71.1189.1353 E71.1189.1656 E94 E103 E99 E37"/>
    </vehicle>
    <vehicle id="523" depart="523.00">
        <route edges="E11.291 E11.459 E14 E16 E18 E2 E2.343 E2.599 E38 E40 E39"/>
    </vehicle>
    <vehicle id="525" depart="525.00">
        <route edges="E71.1189.1656 E94 E103 E99 E37 E37.815 E37.1085 E47 E53 E50 E8 E8.280 E8.532"/>
    </vehicle>
    <vehicle id="529" depart="529.00">
        <route edges="E6.1344 E74 E87 E78 E71 E71.845 E71.1189 E71.1189.1353 E71.1189.1656 E94 E103 E99 E37 E37.815"/>
    </vehicle>
    <vehicle id="535" depart="535.00">
        <route edges="E40 E39 E36"/>
    </vehicle>
    <vehicle id="538" depart="538.00">
        <route edges="E55.336 E34 E34.1080 E34.1452 E41 E51 E50 E8 E8.280 E8.532 E30 E32 E26 E6 E6.1105 E6.1344 E74 E87 E78 E71 E71.845 E71.1189"/>
    </vehicle>
    <vehicle id="543" depart="543.00">
        <route edges="E34 E34.1080 E34.1452 E41 E51 E50 E8 E8.280 E8.532 E30 E32 E26 E6 E6.1105"/>
    </vehicle>
    <vehicle id="544" depart="544.00">
        <route edges="E29 E10 E10.644 E10.876 E56 E115"/>
    </vehicle>
    <vehicle id="551" depart="551.00">
        <route edges="E26 E6 E6.1105"/>
    </vehicle>
    <vehicle id="560" depart="560.00">
        <route edges="E79 E84 E75 E11 E11.291 E11.459 E14 E16 E18 E2 E2.343 E2.599 E38 E40 E39 E36 E36.514 E36.687 E92 E95"/>
    </vehicle>
    <vehicle id="562" depart="562.00">
        <route edges="E55 E11.291 E11.459 E12 E10 E10.644 E10.876"/>
    </vehicle>
    <vehicle id="564" depart="564.00">
        <route edges="E16 E18 E2 E2.343 E2.599 E38 E40 E39 E36 E36.514 E122"/>
    </vehicle>
    <vehicle id="568" depart="568.00">
        <route edges="E30 E32 E26 E6 E6.1105 E6.1344 E74 E87 E78 E71 E71.845 E71.1189 E71.1189.1353 E71.1189.1656 E94 E103 E99 E37 E37.815 E37.1085 E33 E35 E35.820 E35.1093 E114"/>
    </vehicle>
    <vehicle id="573" depart="573.00">
        <route edges="E71.1189.1353 E71.1189.1656 E94 E103 E99 E37 E37.815 E37.1085 E47"/>
    </vehicle>
    <vehicle id="575" depart="575.00">
        <route edges="E116 E57 E3 E3.1385 E3.1703 E4 E6 E6.1105 E6.1344 E74 E87 E78 E71 E71.845 E71.1189 E71.1189.1353 E71.1189.1656 E94 E103 E99 E37 E37.815 E37.1085 E47 E53"/>
    </vehicle>
    <vehicle id="577" depart="577.00">
        <route edges="E57 E3 E3.1385 E3.1703 E4 E6 E6.1105 E6.1344 E74 E87 E78 E71 E71.845 E71.1189 E71.1189.1353 E71.1189.1656 E94 E103 E99 E37 E37.815 E37.1085"/>
    </vehicle>
    <vehicle id="581" depart="581.00">
        <route edges="E6.1105 E6.1344 E74 E87 E78 E71 E71.845 E71.1189 E71.1189.1353 E71.1189.1656 E94 E103 E99 E37 E37.815"/>
    </vehicle>
    <vehicle id="582" depart="582.00">
        <route edges="E6 E6.1105 E6.1344 E74 E87 E78 E71 E71.845 E71.1189 E71.1189.1353 E71.1189.1656 E94 E103"/>
    </vehicle>
    <vehicle id="584" depart="584.00">
        <route edges="E1 E2 E2.343 E2.599 E13 E21"/>
    </vehicle>
    <vehicle id="585" depart="585.00">
        <route edges="E129 E66.2091 E66.2420 E79 E84 E75 E11 E11.291 E11.459 E14 E16 E18 E2 E2.343 E2.599 E38 E40 E39 E36 E36.514 E36.687 E110 E113"/>
    </vehicle>
    <vehicle id="590" depart="590.00">
        <route edges="E78 E71 E71.845 E71.1189 E71.1189.1353 E71.1189.1656 E94 E103 E99 E37 E37.815 E37.1085 E47 E53 E50 E8 E8.280 E8.532 E30 E32 E26 E6 E6.1105 E6.1344 E74"/>
    </vehicle>
    <vehicle id="592" depart="592.00">
        <route edges="E101 E100 E104 E99 E37 E37.815 E37.1085 E47 E53 E50 E8 E8.280 E8.532 E30 E31 E29 E10 E10.644"/>
    </vehicle>
    <vehicle id="593" depart="593.00">
        <route edges="E87 E78 E71 E71.845 E71.1189 E71.1189.1353 E71.1189.1656 E94 E103 E99 E37 E37.815 E37.1085 E47 E53 E50 E8 E8.280 E8.532"/>
    </vehicle>
    <vehicle id="596" depart="596.00">
        <route edges="E11.459 E12 E10 E10.644 E10.876"/>
    </vehicle>
    <vehicle id="600" depart="600.00">
        <route edges="E79 E84 E75 E11 E11.291 E11.459 E14 E16"/>
    </vehicle>
    <vehicle id="602" depart="602.00">
        <route edges="E3.1703 E20 E22"/>
    </vehicle>
    <vehicle id="603" depart="603.00">
        <route edges="E24 E25"/>
    </vehicle>
    <vehicle id="607" depart="607.00">
        <route edges="E66.835 E66.2091 E66.2420 E79 E84 E75"/>
    </vehicle>
    <vehicle id="608" depart="608.00">
        <route edges="E75 E11 E11.291 E11.459 E14"/>
    </vehicle>
    <vehicle id="610" depart="610.00">
        <route edges="E5 E8 E8.280 E8.532 E30 E32 E26 E6 E6.1105 E6.1344 E74 E87 E78 E71"/>
    </vehicle>
    <vehicle id="613" depart="613.00">
        <route edges="E70 E71"/>
    </vehicle>
    <vehicle id="617" depart="617.00">
        <route edges="E53 E50 E8 E8.280 E8.532 E30 E31 E29 E10 E10.644 E10.876 E56 E115"/>
    </vehicle>
    <vehicle id="621" depart="621.00">
        <route edges="E2.599 E38 E40 E39 E36"/>
    </vehicle>
    <vehicle id="624" depart="624.00">
        <route edges="E8.280 E8.532 E30 E32 E26 E6 E6.1105 E6.1344 E74 E87 E78 E71 E71.845 E71.1189 E71.1189.1353 E71.1189.1656 E94 E103 E99 E37 E37.815 E37.1085 E47 E53"/>
    </vehicle>
    <vehicle id="625" depart="625.00">
        <route edges="E38 E40 E39 E36 E36.514"/>
    </vehicle>
    <vehicle id="627" depart="627.00">
        <route edges="E84 E75 E11 E11.291 E11.459 E14 E16 E18 E2 E2.343 E2.599 E38 E43 E42 E35 E35.820"/>
    </vehicle>
    <vehicle id="628" depart="628.00">
        <route edges="E74 E87 E78 E71 E71.845 E59"/>
    </vehicle>
    <vehicle id="633" depart="633.00">
        <route edges="E37.815 E37.1085 E33 E35 E35.820 E120"/>
    </vehicle>
    <vehicle id="634" depart="634.00">
        <route edges="E137 E3.1385 E3.1703 E20 E22 E18 E2 E2.343 E2.599 E38 E43 E42 E35 E35.820 E35.1093"/>
    </vehicle>
    <vehicle id="635" depart="635.00">
        <route edges="E34.1452 E41"/>
    </vehicle>
    <vehicle id="636" depart="636.00">
        <route edges="E116 E57 E3 E3.1385"/>
    </vehicle>
    <vehicle id="639" depart="639.00">
        <route edges="E71.845 E59"/>
    </vehicle>
    <vehicle id="644" depart="644.00">
        <route edges="E24 E25 E26 E6 E6.1105 E6.1344 E74 E87 E78 E71 E71.845 E71.1189 E71.1189.1353 E71.1189.1656 E94 E103 E99 E37 E37.815 E37.1085 E47 E49"/>
    </vehicle>
    <vehicle id="647" depart="647.00">
        <route edges="E3.1703 E4 E6 E6.1105 E6.1344 E74 E87 E78 E71 E71.845 E71.1189 E71.1189.1353 E71.1189.1656 E94 E103 E99 E37 E37.815 E37.1085 E47 E53 E50"/>
    </vehicle>
    <vehicle id="649" depart="649.00">
        <route edges="E3 E3.1385 E3.1703 E4 E6 E6.1105 E6.1344 E74 E87 E78 E71 E71.845"/>
    </vehicle>
    <vehicle id="653" depart="653.00">
        <route edges="E55.336 E34 E34.1080"/>
    </vehicle>
    <vehicle id="661" depart="661.00">
        <route edges="E100 E104 E99 E37 E37.815 E37.1085 E47 E53 E50 E8 E8.280 E8.532 E30 E32 E26"/>
    </vehicle>
    <vehicle id="669" depart="669.00">
        <route edges="E69 E73 E81 E75 E11 E11.291 E11.459 E14 E16 E18 E2 E2.343 E2.599 E38 E43 E42 E35 E35.820"/>
    </vehicle>
    <vehicle id="677" depart="677.00">
        <route edges="E73 E81 E75 E11 E11.291 E11.459 E14 E16 E18 E2 E2.343 E2.599 E38 E40 E39 E36 E36.514 E36.687 E110 E113"/>
    </vehicle>
    <vehicle id="684" depart="684.00">
        <route edges="E34.1080 E34.1452 E41 E51 E50 E8 E8.280 E8.532 E30 E32 E26 E6 E6.1105 E6.1344 E74 E87 E78 E71 E71.845 E71.1189 E71.1189.1353 E71.1189.1656 E91"/>
    </vehicle>
    <vehicle id="686" depart="686.00">
        <route edges="E26 E6 E6.1105 E6.1344 E74 E87 E78 E71 E71.845 E71.1189 E71.1189.1353 E71.1189.1656 E94 E103 E99 E37 E37.815 E37.1085 E47 E53 E50 E8 E8.280 E8.532 E30 E31 E29 E10 E10.644 E10.876"/>
    </vehicle>
    <vehicle id="688" depart="688.00">
        <route edges="E134 E34.1080 E34.1452 E41 E51 E50 E8 E8.280 E8.532 E30 E32 E26 E6 E6.1105 E6.1344 E74 E87 E78 E71 E71.845 E71.1189 E71.1189.1353 E71.1189.1656 E94 E103 E99"/>
    </vehicle>
    <vehicle id="691" depart="691.00">
        <route edges="E55.336 E34 E34.1080 E34.1452 E41 E51 E50 E8 E8.280 E8.532 E30 E32 E26 E6 E6.1105 E6.1344 E74 E87 E78 E71 E71.845"/>
    </vehicle>
    <vehicle id="694" depart="694.00">
        <route edges="E112 E109 E66"/>
    </vehicle>
    <vehicle id="699" depart="699.00">
        <route edges="E11.459 E14 E16 E18 E2 E2.343 E2.599"/>
    </vehicle>
    <vehicle id="706" depart="706.00">
        <route edges="E34 E34.1080 E34.1452 E41 E51 E50 E8 E8.280 E8.532 E30 E32 E26 E6 E6.1105 E6.1344 E74 E87 E78 E71 E71.845 E71.1189 E71.1189.1353 E71.1189.1656 E94 E103 E99 E37 E37.815 E37.1085 E47 E53"/>
    </vehicle>
    <vehicle id="708" depart="708.00">
        <route edges="E57 E55.336 E34 E34.1080 E34.1452 E27 E36 E36.514 E36.687 E110 E111 E109"/>
    </vehicle>
    <vehicle id="709" depart="709.00">
        <route edges="E96 E107 E108 E106"/>
    </vehicle>
    <vehicle id="710" depart="710.00">
        <route edges="E4"/>
    </vehicle>
    <vehicle id="712" depart="712.00">