<?xml version="1.0" encoding="UTF-8"?>

<!-- generated on 2024-07-04 21:36:36.490436 by osmWebWizard.py UNKNOWN
<configuration>
    <net-file value="/opt/homebrew/Cellar/sumo/1.20.0/share/sumo/tools/2024-07-04-21-36-34/Traffic_Net.net.xml.gz"/>
    <output-trip-file value="/opt/homebrew/Cellar/sumo/1.20.0/share/sumo/tools/2024-07-04-21-36-34/osm.passenger.trips.xml"/>
    <route-file value="/opt/homebrew/Cellar/sumo/1.20.0/share/sumo/tools/2024-07-04-21-36-34/osm.passenger.rou.xml"/>
    <prefix value="veh"/>
    <trip-attributes value="departLane=&quot;best&quot;"/>
    <fringe-start-attributes value="departSpeed=&quot;max&quot;"/>
    <vehicle-class value="passenger"/>
    <lanes value="True"/>
    <fringe-factor value="5"/>
    <allow-fringe.min-length value="1000.0"/>
    <via-edge-types value="highway.motorway,highway.motorway_link,highway.trunk_link,highway.primary_link,highway.secondary_link,highway.tertiary_link"/>
    <min-distance value="300.0"/>
    <min-distance.fringe value="10.0"/>
    <remove-loops value="True"/>
    <validate value="True"/>
    <insertion-density value="12.0"/>
</configuration>
-->

<!-- generated on 2024-07-04 21:36:36 by Eclipse SUMO duarouter Version 1.20.0
<configuration xmlns:xsi="http://www.w3.org/2001/XMLSchema-instance" xsi:noNamespaceSchemaLocation="http://sumo.dlr.de/xsd/duarouterConfiguration.xsd">

    <input>
        <net-file value="/opt/homebrew/Cellar/sumo/1.20.0/share/sumo/tools/2024-07-04-21-36-34/Traffic_Net.net.xml.gz"/>
        <route-files value="/opt/homebrew/Cellar/sumo/1.20.0/share/sumo/tools/2024-07-04-21-36-34/osm.passenger.trips.xml"/>
    </input>

    <output>
        <output-file value="/opt/homebrew/Cellar/sumo/1.20.0/share/sumo/tools/2024-07-04-21-36-34/osm.passenger.trips.xml.tmp"/>
        <alternatives-output value="NUL"/>
        <write-trips value="true"/>
    </output>

    <processing>
        <remove-loops value="true"/>
    </processing>

    <time>
        <begin value="0.0"/>
        <end value="3600.0"/>
    </time>

    <report>
        <no-warnings value="true"/>
        <ignore-errors value="true"/>
        <no-step-log value="true"/>
    </report>

</configuration>
-->

<routes xmlns:xsi="http://www.w3.org/2001/XMLSchema-instance" xsi:noNamespaceSchemaLocation="http://sumo.dlr.de/xsd/routes_file.xsd">
    <vType id="veh_passenger" vClass="passenger"/>
    <trip id="veh0" type="veh_passenger" depart="0.00" departLane="best" departSpeed="max" from="27145003" to="32019880"/>
    <trip id="veh1" type="veh_passenger" depart="0.65" departLane="best" departSpeed="max" from="399461596" to="404939391"/>
    <trip id="veh2" type="veh_passenger" depart="1.29" departLane="best" departSpeed="max" from="32019901" to="1049955341"/>
    <trip id="veh3" type="veh_passenger" depart="1.94" departLane="best" departSpeed="max" from="181892516" to="398543399"/>
    <trip id="veh5" type="veh_passenger" depart="3.24" departLane="best" departSpeed="max" from="38608486" to="399512804"/>
    <trip id="veh6" type="veh_passenger" depart="3.88" departLane="best" departSpeed="max" from="181892516" to="399995671"/>
    <trip id="veh10" type="veh_passenger" depart="6.47" departLane="best" departSpeed="max" from="123456265" to="125083397"/>
    <trip id="veh11" type="veh_passenger" depart="7.12" departLane="best" departSpeed="max" from="418888016" to="399995671"/>
    <trip id="veh12" type="veh_passenger" depart="7.77" departLane="best" departSpeed="max" from="33783883" to="963582638"/>
    <trip id="veh13" type="veh_passenger" depart="8.42" departLane="best" departSpeed="max" from="32019450" to="399512804"/>
    <trip id="veh14" type="veh_passenger" depart="9.06" departLane="best" departSpeed="max" from="418888016" to="399995671"/>
    <trip id="veh15" type="veh_passenger" depart="9.71" departLane="best" departSpeed="max" from="540169027" to="399995671"/>
    <trip id="veh16" type="veh_passenger" depart="10.36" departLane="best" departSpeed="max" from="398354314" to="1049955341"/>
    <trip id="veh18" type="veh_passenger" depart="11.65" departLane="best" departSpeed="max" from="123456265" to="33616592"/>
    <trip id="veh19" type="veh_passenger" depart="12.30" departLane="best" departSpeed="max" from="123456265" to="33621406"/>
    <trip id="veh20" type="veh_passenger" depart="12.95" departLane="best" departSpeed="max" from="38608486" to="381291886"/>
    <trip id="veh22" type="veh_passenger" depart="14.24" departLane="best" departSpeed="max" from="27145003" to="963582638"/>
    <trip id="veh23" type="veh_passenger" depart="14.89" departLane="best" departSpeed="max" from="38608486" to="399995671"/>
    <trip id="veh25" type="veh_passenger" depart="16.19" departLane="best" departSpeed="max" from="13272472" to="398407948"/>
    <trip id="veh26" type="veh_passenger" depart="16.83" departLane="best" departSpeed="max" from="859290447" to="399995671"/>
    <trip id="veh28" type="veh_passenger" depart="18.13" departLane="best" departSpeed="max" from="418888016" to="79102696"/>
    <trip id="veh29" type="veh_passenger" depart="18.78" departLane="best" departSpeed="max" from="181892516" to="1049955341"/>
    <trip id="veh30" type="veh_passenger" depart="19.42" departLane="best" departSpeed="max" from="27145749" to="33621406"/>
    <trip id="veh31" type="veh_passenger" depart="20.07" departLane="best" departSpeed="max" from="172595273" to="963582638"/>
    <trip id="veh32" type="veh_passenger" depart="20.72" departLane="best" departSpeed="max" from="540169027" to="349444495"/>
    <trip id="veh33" type="veh_passenger" depart="21.37" departLane="best" departSpeed="max" from="63507839#0" to="398526951"/>
    <trip id="veh34" type="veh_passenger" depart="22.01" departLane="best" departSpeed="max" from="27145003" to="33621406"/>
    <trip id="veh35" type="veh_passenger" depart="22.66" departLane="best" departSpeed="max" from="349444532" to="33621406"/>
    <trip id="veh36" type="veh_passenger" depart="23.31" departLane="best" departSpeed="max" from="35568072" to="867193421"/>
    <trip id="veh38" type="veh_passenger" depart="24.60" departLane="best" departSpeed="max" from="123456265" to="1049955341"/>
    <trip id="veh39" type="veh_passenger" depart="25.25" departLane="best" departSpeed="max" from="123456265" to="399995671"/>
    <trip id="veh41" type="veh_passenger" depart="26.55" departLane="best" departSpeed="max" from="123456265" to="398407948"/>
    <trip id="veh42" type="veh_passenger" depart="27.19" departLane="best" departSpeed="max" from="859290447" to="399491993"/>
    <trip id="veh43" type="veh_passenger" depart="27.84" departLane="best" departSpeed="max" from="859290447" to="867193421"/>
    <trip id="veh45" type="veh_passenger" depart="29.14" departLane="best" departSpeed="max" from="398354314" to="399491993"/>
    <trip id="veh47" type="veh_passenger" depart="30.43" departLane="best" departSpeed="max" from="33616558" to="963582638"/>
    <trip id="veh48" type="veh_passenger" depart="31.08" departLane="best" departSpeed="max" from="540169027" to="33621406"/>
    <trip id="veh50" type="veh_passenger" depart="32.37" departLane="best" departSpeed="max" from="63507839#0" to="867193421"/>
    <trip id="veh51" type="veh_passenger" depart="33.02" departLane="best" departSpeed="max" from="38608486" to="32018602"/>
    <trip id="veh52" type="veh_passenger" depart="33.67" departLane="best" departSpeed="max" from="399512816" to="399491993"/>
    <trip id="veh53" type="veh_passenger" depart="34.32" departLane="best" departSpeed="max" from="399666000" to="399491993"/>
    <trip id="veh56" type="veh_passenger" depart="36.26" departLane="best" departSpeed="max" from="540169027" to="866221698"/>
    <trip id="veh57" type="veh_passenger" depart="36.91" departLane="best" departSpeed="max" from="27145003" to="1049955341"/>
    <trip id="veh58" type="veh_passenger" depart="37.55" departLane="best" departSpeed="max" from="540169027" to="963582638"/>
    <trip id="veh59" type="veh_passenger" depart="38.20" departLane="best" departSpeed="max" from="123456265" to="398543399"/>
    <trip id="veh60" type="veh_passenger" depart="38.85" departLane="best" departSpeed="max" from="123456265" to="79102696"/>
    <trip id="veh61" type="veh_passenger" depart="39.50" departLane="best" departSpeed="max" from="399512816" to="299339097"/>
    <trip id="veh62" type="veh_passenger" depart="40.14" departLane="best" departSpeed="max" from="33616861" to="399512804"/>
    <trip id="veh63" type="veh_passenger" depart="40.79" departLane="best" departSpeed="max" from="27145003" to="867193421"/>
    <trip id="veh64" type="veh_passenger" depart="41.44" departLane="best" departSpeed="max" from="33783883" to="528093987"/>
    <trip id="veh67" type="veh_passenger" depart="43.38" departLane="best" departSpeed="max" from="33616558" to="399491993"/>
    <trip id="veh68" type="veh_passenger" depart="44.03" departLane="best" departSpeed="max" from="13256322" to="32019880"/>
    <trip id="veh69" type="veh_passenger" depart="44.68" departLane="best" departSpeed="max" from="32018497" to="399995671"/>
    <trip id="veh71" type="veh_passenger" depart="45.97" departLane="best" departSpeed="max" from="123456265" to="399995671"/>
    <trip id="veh72" type="veh_passenger" depart="46.62" departLane="best" departSpeed="max" from="181892516" to="867193421"/>
    <trip id="veh74" type="veh_passenger" depart="47.91" departLane="best" departSpeed="max" from="181892516" to="299339097"/>
    <trip id="veh76" type="veh_passenger" depart="49.21" departLane="best" departSpeed="max" from="33616861" to="79102696"/>
    <trip id="veh77" type="veh_passenger" depart="49.86" departLane="best" departSpeed="max" from="399666001" to="32019758"/>
    <trip id="veh80" type="veh_passenger" depart="51.80" departLane="best" departSpeed="max" from="399461596" to="404939391"/>
    <trip id="veh82" type="veh_passenger" depart="53.09" departLane="best" departSpeed="max" from="540169027" to="33621406"/>
    <trip id="veh83" type="veh_passenger" depart="53.74" departLane="best" departSpeed="max" from="32019901" to="33621406"/>
    <trip id="veh84" type="veh_passenger" depart="54.39" departLane="best" departSpeed="max" from="183810662" to="880629374"/>
    <trip id="veh85" type="veh_passenger" depart="55.04" departLane="best" departSpeed="max" from="33616558" to="867193421"/>
    <trip id="veh86" type="veh_passenger" depart="55.68" departLane="best" departSpeed="max" from="349444532" to="1049955341"/>
    <trip id="veh87" type="veh_passenger" depart="56.33" departLane="best" departSpeed="max" from="859290447" to="866221698"/>
    <trip id="veh88" type="veh_passenger" depart="56.98" departLane="best" departSpeed="max" from="859290447" to="880629374"/>
    <trip id="veh92" type="veh_passenger" depart="59.57" departLane="best" departSpeed="max" from="32019450" to="963582638"/>
    <trip id="veh93" type="veh_passenger" depart="60.22" departLane="best" departSpeed="max" from="27145003" to="79102696"/>
    <trip id="veh95" type="veh_passenger" depart="61.51" departLane="best" departSpeed="max" from="63507839#0" to="963582638"/>
    <trip id="veh97" type="veh_passenger" depart="62.81" departLane="best" departSpeed="max" from="13272472" to="33621406"/>
    <trip id="veh98" type="veh_passenger" depart="63.45" departLane="best" departSpeed="max" from="859290447" to="399995671"/>
    <trip id="veh99" type="veh_passenger" depart="64.10" departLane="best" departSpeed="max" from="123456265" to="399995671"/>
    <trip id="veh101" type="veh_passenger" depart="65.40" departLane="best" departSpeed="max" from="13272472" to="963582638"/>
    <trip id="veh102" type="veh_passenger" depart="66.04" departLane="best" departSpeed="max" from="123456265" to="32019758"/>
    <trip id="veh103" type="veh_passenger" depart="66.69" departLane="best" departSpeed="max" from="35568073" to="404939391"/>
    <trip id="veh105" type="veh_passenger" depart="67.99" departLane="best" departSpeed="max" from="604363290" to="33621406"/>
    <trip id="veh106" type="veh_passenger" depart="68.63" departLane="best" departSpeed="max" from="35568073" to="399995671"/>
    <trip id="veh107" type="veh_passenger" depart="69.28" departLane="best" departSpeed="max" from="32019901" to="399995671"/>
    <trip id="veh108" type="veh_passenger" depart="69.93" departLane="best" departSpeed="max" from="33783883" to="963582638"/>
    <trip id="veh109" type="veh_passenger" depart="70.58" departLane="best" departSpeed="max" from="172595273" to="528093987"/>
    <trip id="veh110" type="veh_passenger" depart="71.22" departLane="best" departSpeed="max" from="183810662" to="398407948"/>
    <trip id="veh111" type="veh_passenger" depart="71.87" departLane="best" departSpeed="max" from="398354314" to="349444495"/>
    <trip id="veh112" type="veh_passenger" depart="72.52" departLane="best" departSpeed="max" from="27145749" to="79102696"/>
    <trip id="veh113" type="veh_passenger" depart="73.17" departLane="best" departSpeed="max" from="123456265" to="398526951"/>
    <trip id="veh114" type="veh_passenger" depart="73.81" departLane="best" departSpeed="max" from="859290447" to="963582638"/>
    <trip id="veh115" type="veh_passenger" depart="74.46" departLane="best" departSpeed="max" from="123456265" to="32019824"/>
    <trip id="veh116" type="veh_passenger" depart="75.11" departLane="best" departSpeed="max" from="27145003" to="963582638"/>
    <trip id="veh117" type="veh_passenger" depart="75.76" departLane="best" departSpeed="max" from="604363290" to="867193421"/>
    <trip id="veh118" type="veh_passenger" depart="76.40" departLane="best" departSpeed="max" from="32019412" to="32018602"/>
    <trip id="veh120" type="veh_passenger" depart="77.70" departLane="best" departSpeed="max" from="38608486" to="963582638"/>
    <trip id="veh122" type="veh_passenger" depart="78.99" departLane="best" departSpeed="max" from="398354314" to="963582638"/>
    <trip id="veh124" type="veh_passenger" depart="80.29" departLane="best" departSpeed="max" from="123456265" to="399512804"/>
    <trip id="veh125" type="veh_passenger" depart="80.94" departLane="best" departSpeed="max" from="398543413" to="32019824"/>
    <trip id="veh126" type="veh_passenger" depart="81.58" departLane="best" departSpeed="max" from="38608486" to="33621406"/>
    <trip id="veh127" type="veh_passenger" depart="82.23" departLane="best" departSpeed="max" from="33617926" to="867193421"/>
    <trip id="veh128" type="veh_passenger" depart="82.88" departLane="best" departSpeed="max" from="418888016" to="125083397"/>
    <trip id="veh129" type="veh_passenger" depart="83.53" departLane="best" departSpeed="max" from="32019901" to="33621406"/>
    <trip id="veh131" type="veh_passenger" depart="84.82" departLane="best" departSpeed="max" from="38608486" to="33621406"/>
    <trip id="veh132" type="veh_passenger" depart="85.47" departLane="best" departSpeed="max" from="399512812" to="399512804"/>
    <trip id="veh134" type="veh_passenger" depart="86.76" departLane="best" departSpeed="max" from="123456265" to="867193421"/>
    <trip id="veh135" type="veh_passenger" depart="87.41" departLane="best" departSpeed="max" from="604363290" to="399512804"/>
    <trip id="veh136" type="veh_passenger" depart="88.06" departLane="best" departSpeed="max" from="418888016" to="399995671"/>
    <trip id="veh138" type="veh_passenger" depart="89.35" departLane="best" departSpeed="max" from="27145003" to="867193421"/>
    <trip id="veh139" type="veh_passenger" depart="90.00" departLane="best" departSpeed="max" from="399666001" to="867193421"/>
    <trip id="veh140" type="veh_passenger" depart="90.65" departLane="best" departSpeed="max" from="604363290" to="32019824"/>
    <trip id="veh142" type="veh_passenger" depart="91.94" departLane="best" departSpeed="max" from="399666000" to="867193421"/>
    <trip id="veh144" type="veh_passenger" depart="93.24" departLane="best" departSpeed="max" from="540169027" to="963582638"/>
    <trip id="veh147" type="veh_passenger" depart="95.18" departLane="best" departSpeed="max" from="27145749" to="880629374"/>
    <trip id="veh148" type="veh_passenger" depart="95.83" departLane="best" departSpeed="max" from="399666001" to="867193421"/>
    <trip id="veh149" type="veh_passenger" depart="96.48" departLane="best" departSpeed="max" from="399666979" to="33621406"/>
    <trip id="veh150" type="veh_passenger" depart="97.12" departLane="best" departSpeed="max" from="399666000" to="125083397"/>
    <trip id="veh151" type="veh_passenger" depart="97.77" departLane="best" departSpeed="max" from="540169027" to="867193421"/>
    <trip id="veh152" type="veh_passenger" depart="98.42" departLane="best" departSpeed="max" from="181892516" to="866221698"/>
    <trip id="veh153" type="veh_passenger" depart="99.07" departLane="best" departSpeed="max" from="33616861" to="349444495"/>
    <trip id="veh156" type="veh_passenger" depart="101.01" departLane="best" departSpeed="max" from="27145749" to="867193421"/>
    <trip id="veh157" type="veh_passenger" depart="101.66" departLane="best" departSpeed="max" from="859290447" to="33621406"/>
    <trip id="veh158" type="veh_passenger" depart="102.30" departLane="best" departSpeed="max" from="859290447" to="399491993"/>
    <trip id="veh161" type="veh_passenger" depart="104.25" departLane="best" departSpeed="max" from="859290447" to="33621406"/>
    <trip id="veh164" type="veh_passenger" depart="106.19" departLane="best" departSpeed="max" from="38608486" to="399464668"/>
    <trip id="veh165" type="veh_passenger" depart="106.84" departLane="best" departSpeed="max" from="32019450" to="399995671"/>
    <trip id="veh166" type="veh_passenger" depart="107.48" departLane="best" departSpeed="max" from="27145003" to="418888632"/>
    <trip id="veh168" type="veh_passenger" depart="108.78" departLane="best" departSpeed="max" from="33783883" to="528093987"/>
    <trip id="veh171" type="veh_passenger" depart="110.72" departLane="best" departSpeed="max" from="398354314" to="349444495"/>
    <trip id="veh172" type="veh_passenger" depart="111.37" departLane="best" departSpeed="max" from="27145749" to="866221698"/>
    <trip id="veh173" type="veh_passenger" depart="112.02" departLane="best" departSpeed="max" from="398543413" to="349444495"/>
    <trip id="veh175" type="veh_passenger" depart="113.31" departLane="best" departSpeed="max" from="32019776#0" to="33621406"/>
    <trip id="veh177" type="veh_passenger" depart="114.61" departLane="best" departSpeed="max" from="63507839#0" to="404939391"/>
    <trip id="veh178" type="veh_passenger" depart="115.25" departLane="best" departSpeed="max" from="604363290" to="399995671"/>
    <trip id="veh179" type="veh_passenger" depart="115.90" departLane="best" departSpeed="max" from="27145003" to="399512804"/>
    <trip id="veh182" type="veh_passenger" depart="117.84" departLane="best" departSpeed="max" from="38608486" to="398526951"/>
    <trip id="veh184" type="veh_passenger" depart="119.14" departLane="best" departSpeed="max" from="33616861" to="867193421"/>
    <trip id="veh185" type="veh_passenger" depart="119.79" departLane="best" departSpeed="max" from="399666001" to="32018810"/>
    <trip id="veh186" type="veh_passenger" depart="120.43" departLane="best" departSpeed="max" from="123456265" to="399464668"/>
    <trip id="veh189" type="veh_passenger" depart="122.38" departLane="best" departSpeed="max" from="398354314" to="32019880"/>
    <trip id="veh191" type="veh_passenger" depart="123.67" departLane="best" departSpeed="max" from="32019901" to="399995671"/>
    <trip id="veh194" type="veh_passenger" depart="125.61" departLane="best" departSpeed="max" from="399512814" to="79102696"/>
    <trip id="veh196" type="veh_passenger" depart="126.91" departLane="best" departSpeed="max" from="13273328" to="963582638"/>
    <trip id="veh197" type="veh_passenger" depart="127.56" departLane="best" departSpeed="max" from="33783883" to="1049955341"/>
    <trip id="veh198" type="veh_passenger" depart="128.20" departLane="best" departSpeed="max" from="183810662" to="866221698"/>
    <trip id="veh199" type="veh_passenger" depart="128.85" departLane="best" departSpeed="max" from="33616861" to="866221698"/>
    <trip id="veh200" type="veh_passenger" depart="129.50" departLane="best" departSpeed="max" from="398354314" to="963582638"/>
    <trip id="veh201" type="veh_passenger" depart="130.15" departLane="best" departSpeed="max" from="35568073" to="963582638"/>
    <trip id="veh202" type="veh_passenger" depart="130.79" departLane="best" departSpeed="max" from="604363290" to="399995671"/>
    <trip id="veh206" type="veh_passenger" depart="133.38" departLane="best" departSpeed="max" from="33616861" to="33621406"/>
    <trip id="veh207" type="veh_passenger" depart="134.03" departLane="best" departSpeed="max" from="183810662" to="399995671"/>
    <trip id="veh208" type="veh_passenger" depart="134.68" departLane="best" departSpeed="max" from="399512816" to="399491993"/>
    <trip id="veh209" type="veh_passenger" depart="135.33" departLane="best" departSpeed="max" from="38608486" to="33621406"/>
    <trip id="veh210" type="veh_passenger" depart="135.97" departLane="best" departSpeed="max" from="123456265" to="33621406"/>
    <trip id="veh211" type="veh_passenger" depart="136.62" departLane="best" departSpeed="max" from="27145003" to="349444495"/>
    <trip id="veh212" type="veh_passenger" depart="137.27" departLane="best" departSpeed="max" from="33783883" to="299339097"/>
    <trip id="veh214" type="veh_passenger" depart="138.56" departLane="best" departSpeed="max" from="398354314" to="1049955341"/>
    <trip id="veh216" type="veh_passenger" depart="139.86" departLane="best" departSpeed="max" from="32019901" to="867193421"/>
    <trip id="veh218" type="veh_passenger" depart="141.15" departLane="best" departSpeed="max" from="52015673" to="79102696"/>
    <trip id="veh219" type="veh_passenger" depart="141.80" departLane="best" departSpeed="max" from="32019450" to="1049955341"/>
    <trip id="veh220" type="veh_passenger" depart="142.45" departLane="best" departSpeed="max" from="32019162" to="79102696"/>
    <trip id="veh221" type="veh_passenger" depart="143.10" departLane="best" departSpeed="max" from="52015673" to="963582638"/>
    <trip id="veh222" type="veh_passenger" depart="143.74" departLane="best" departSpeed="max" from="32019901" to="79102696"/>
    <trip id="veh223" type="veh_passenger" depart="144.39" departLane="best" departSpeed="max" from="349444532" to="399995671"/>
    <trip id="veh225" type="veh_passenger" depart="145.69" departLane="best" departSpeed="max" from="33616558" to="1049955341"/>
    <trip id="veh233" type="veh_passenger" depart="150.87" departLane="best" departSpeed="max" from="172595273" to="349444495"/>
    <trip id="veh234" type="veh_passenger" depart="151.51" departLane="best" departSpeed="max" from="399512814" to="866221698"/>
    <trip id="veh238" type="veh_passenger" depart="154.10" departLane="best" departSpeed="max" from="38608486" to="79102696"/>
    <trip id="veh239" type="veh_passenger" depart="154.75" departLane="best" departSpeed="max" from="38608486" to="79102696"/>
    <trip id="veh243" type="veh_passenger" depart="157.34" departLane="best" departSpeed="max" from="349444532" to="32019824"/>
    <trip id="veh244" type="veh_passenger" depart="157.99" departLane="best" departSpeed="max" from="398354314" to="79102696"/>
    <trip id="veh245" type="veh_passenger" depart="158.64" departLane="best" departSpeed="max" from="13272472" to="399995671"/>
    <trip id="veh246" type="veh_passenger" depart="159.28" departLane="best" departSpeed="max" from="399512814" to="125083397"/>
    <trip id="veh248" type="veh_passenger" depart="160.58" departLane="best" departSpeed="max" from="123456265" to="1049955341"/>
    <trip id="veh249" type="veh_passenger" depart="161.23" departLane="best" departSpeed="max" from="27145003" to="404939391"/>
    <trip id="veh250" type="veh_passenger" depart="161.87" departLane="best" departSpeed="max" from="63507839#0" to="398407948"/>
    <trip id="veh252" type="veh_passenger" depart="163.17" departLane="best" departSpeed="max" from="398354314" to="399995671"/>
    <trip id="veh253" type="veh_passenger" depart="163.82" departLane="best" departSpeed="max" from="123456265" to="79102696"/>
    <trip id="veh254" type="veh_passenger" depart="164.46" departLane="best" departSpeed="max" from="52015673" to="399995671"/>
    <trip id="veh255" type="veh_passenger" depart="165.11" departLane="best" departSpeed="max" from="13256322" to="963582638"/>
    <trip id="veh259" type="veh_passenger" depart="167.70" departLane="best" departSpeed="max" from="52015673" to="866221698"/>
    <trip id="veh260" type="veh_passenger" depart="168.35" departLane="best" departSpeed="max" from="38608486" to="866221698"/>
    <trip id="veh262" type="veh_passenger" depart="169.64" departLane="best" departSpeed="max" from="399461596" to="963582638"/>
    <trip id="veh263" type="veh_passenger" depart="170.29" departLane="best" departSpeed="max" from="27145003" to="866221698"/>
    <trip id="veh264" type="veh_passenger" depart="170.94" departLane="best" departSpeed="max" from="33783883" to="398543399"/>
    <trip id="veh265" type="veh_passenger" depart="171.59" departLane="best" departSpeed="max" from="33616558" to="528093987"/>
    <trip id="veh266" type="veh_passenger" depart="172.23" departLane="best" departSpeed="max" from="27145003" to="867193421"/>
    <trip id="veh267" type="veh_passenger" depart="172.88" departLane="best" departSpeed="max" from="418888016" to="125083397"/>
    <trip id="veh268" type="veh_passenger" depart="173.53" departLane="best" departSpeed="max" from="604363290" to="33621406"/>
    <trip id="veh269" type="veh_passenger" depart="174.18" departLane="best" departSpeed="max" from="33616861" to="399995671"/>
    <trip id="veh270" type="veh_passenger" depart="174.82" departLane="best" departSpeed="max" from="32019450" to="1049955341"/>
    <trip id="veh272" type="veh_passenger" depart="176.12" departLane="best" departSpeed="max" from="172595273" to="866221698"/>
    <trip id="veh273" type="veh_passenger" depart="176.77" departLane="best" departSpeed="max" from="32018497" to="867193421"/>
    <trip id="veh274" type="veh_passenger" depart="177.41" departLane="best" departSpeed="max" from="398354314" to="33621406"/>
    <trip id="veh276" type="veh_passenger" depart="178.71" departLane="best" departSpeed="max" from="123456265" to="528093987"/>
    <trip id="veh277" type="veh_passenger" depart="179.36" departLane="best" departSpeed="max" from="33617926" to="79102696"/>
    <trip id="veh279" type="veh_passenger" depart="180.65" departLane="best" departSpeed="max" from="33617926" to="79102696"/>
    <trip id="veh280" type="veh_passenger" depart="181.30" departLane="best" departSpeed="max" from="123456265" to="32019880"/>
    <trip id="veh281" type="veh_passenger" depart="181.95" departLane="best" departSpeed="max" from="398354314" to="349444495"/>
    <trip id="veh282" type="veh_passenger" depart="182.59" departLane="best" departSpeed="max" from="35568072" to="398543399"/>
    <trip id="veh284" type="veh_passenger" depart="183.89" departLane="best" departSpeed="max" from="399512812" to="349444495"/>
    <trip id="veh285" type="veh_passenger" depart="184.54" departLane="best" departSpeed="max" from="398354314" to="33621406"/>
    <trip id="veh290" type="veh_passenger" depart="187.77" departLane="best" departSpeed="max" from="859290447" to="399491993"/>
    <trip id="veh291" type="veh_passenger" depart="188.42" departLane="best" departSpeed="max" from="27145003" to="125083397"/>
    <trip id="veh293" type="veh_passenger" depart="189.72" departLane="best" departSpeed="max" from="13273328" to="1049955341"/>
    <trip id="veh294" type="veh_passenger" depart="190.36" departLane="best" departSpeed="max" from="33783883" to="33621406"/>
    <trip id="veh295" type="veh_passenger" depart="191.01" departLane="best" departSpeed="max" from="859290447" to="399512804"/>
    <trip id="veh297" type="veh_passenger" depart="192.31" departLane="best" departSpeed="max" from="540169027" to="398543399"/>
    <trip id="veh298" type="veh_passenger" depart="192.95" departLane="best" departSpeed="max" from="540169027" to="399512804"/>
    <trip id="veh301" type="veh_passenger" depart="194.90" departLane="best" departSpeed="max" from="63507839#0" to="398543399"/>
    <trip id="veh303" type="veh_passenger" depart="196.19" departLane="best" departSpeed="max" from="123456265" to="399995671"/>
    <trip id="veh304" type="veh_passenger" depart="196.84" departLane="best" departSpeed="max" from="123456265" to="299339097"/>
    <trip id="veh306" type="veh_passenger" depart="198.13" departLane="best" departSpeed="max" from="399512816" to="399995671"/>
    <trip id="veh308" type="veh_passenger" depart="199.43" departLane="best" departSpeed="max" from="33783883" to="398526951"/>
    <trip id="veh309" type="veh_passenger" depart="200.08" departLane="best" departSpeed="max" from="33616558" to="867193421"/>
    <trip id="veh310" type="veh_passenger" depart="200.72" departLane="best" departSpeed="max" from="859290447" to="349444495"/>
    <trip id="veh311" type="veh_passenger" depart="201.37" departLane="best" departSpeed="max" from="38608486" to="399995671"/>
    <trip id="veh312" type="veh_passenger" depart="202.02" departLane="best" departSpeed="max" from="399512812" to="963582638"/>
    <trip id="veh313" type="veh_passenger" depart="202.67" departLane="best" departSpeed="max" from="172595273" to="32019824"/>
    <trip id="veh314" type="veh_passenger" depart="203.31" departLane="best" departSpeed="max" from="398354314" to="32018602"/>
    <trip id="veh319" type="veh_passenger" depart="206.55" departLane="best" departSpeed="max" from="398354314" to="398526951"/>
    <trip id="veh320" type="veh_passenger" depart="207.20" departLane="best" departSpeed="max" from="398354314" to="880629374"/>