<?xml version="1.0" encoding="UTF-8"?>

<!-- generated on 2024-07-29 21:23:33 by Eclipse SUMO netconvert Version 1.20.0
<configuration xmlns:xsi="http://www.w3.org/2001/XMLSchema-instance" xsi:noNamespaceSchemaLocation="http://sumo.dlr.de/xsd/netconvertConfiguration.xsd">

    <input>
        <type-files value="${SUMO_HOME}/data/typemap/osmNetconvert.typ.xml"/>
        <osm-files value="osm_bbox.osm.xml.gz"/>
    </input>

    <output>
        <output-file value="osm.net.xml.gz"/>
        <output.street-names value="true"/>
        <output.original-names value="true"/>
    </output>

    <projection>
        <proj.utm value="true"/>
    </projection>

    <processing>
        <geometry.remove value="true"/>
        <roundabouts.guess value="true"/>
    </processing>

    <tls_building>
        <tls.discard-simple value="true"/>
        <tls.join value="true"/>
        <tls.guess-signals value="true"/>
        <tls.default-type value="actuated"/>
    </tls_building>

    <ramp_guessing>
        <ramps.guess value="true"/>
    </ramp_guessing>

    <junctions>
        <junctions.join value="true"/>
        <junctions.corner-detail value="5"/>
    </junctions>

</configuration>
-->

<net version="1.20" junctionCornerDetail="5" limitTurnSpeed="5.50" xmlns:xsi="http://www.w3.org/2001/XMLSchema-instance" xsi:noNamespaceSchemaLocation="http://sumo.dlr.de/xsd/net_file.xsd">

    <location netOffset="-383939.53,-3768064.37" convBoundary="0.00,0.00,5515.15,4420.57" origBoundary="-118.257749,34.047287,-118.197802,34.086953" projParameter="+proj=utm +zone=11 +ellps=WGS84 +datum=WGS84 +units=m +no_defs"/>

    <type id="highway.motorway" priority="14" numLanes="2" speed="39.44" allow="private emergency authority army vip passenger hov taxi bus coach delivery truck trailer motorcycle evehicle custom1 custom2" oneway="1"/>
    <type id="highway.motorway_link" priority="9" numLanes="1" speed="22.22" allow="private emergency authority army vip passenger hov taxi bus coach delivery truck trailer motorcycle evehicle custom1 custom2" oneway="1"/>

    <edge id=":10559932_0" function="internal">
        <lane id=":10559932_0_0" index="0" allow="private emergency authority army vip passenger hov taxi bus coach delivery truck trailer motorcycle evehicle custom1 custom2" speed="26.82" length="0.38" shape="3308.80,3711.90 3308.90,3711.81"/>
        <lane id=":10559932_0_1" index="1" allow="private emergency authority army vip passenger hov taxi bus coach delivery truck trailer motorcycle evehicle custom1 custom2" speed="26.82" length="0.38" shape="3310.86,3714.35 3311.14,3714.10"/>
        <lane id=":10559932_0_2" index="2" allow="private emergency authority army vip passenger hov taxi bus coach delivery truck trailer motorcycle evehicle custom1 custom2" speed="26.82" length="0.38" shape="3312.91,3716.81 3313.38,3716.38"/>
    </edge>
    <edge id=":10901686755_0" function="internal">
        <lane id=":10901686755_0_0" index="0" allow="private emergency authority army vip passenger hov taxi bus coach delivery truck trailer motorcycle evehicle custom1 custom2" speed="39.44" length="8.21" shape="2726.09,688.90 2728.47,688.52 2730.04,687.91 2731.60,687.26 2733.97,686.76"/>
    </edge>
    <edge id=":122900674-AddedOnRampNode_0" function="internal">
        <lane id=":122900674-AddedOnRampNode_0_0" index="0" allow="private emergency authority army vip passenger hov taxi bus coach delivery truck trailer motorcycle evehicle custom1 custom2" speed="24.59" length="8.00" shape="446.09,2134.76 440.07,2140.03"/>
        <lane id=":122900674-AddedOnRampNode_0_1" index="1" allow="private emergency authority army vip passenger hov taxi bus coach delivery truck trailer motorcycle evehicle custom1 custom2" speed="24.59" length="8.00" shape="443.98,2132.35 437.96,2137.62"/>
        <lane id=":122900674-AddedOnRampNode_0_2" index="2" allow="private emergency authority army vip passenger hov taxi bus coach delivery truck trailer motorcycle evehicle custom1 custom2" speed="24.59" length="8.00" shape="441.87,2129.94 435.85,2135.22"/>
        <lane id=":122900674-AddedOnRampNode_0_3" index="3" allow="private emergency authority army vip passenger hov taxi bus coach delivery truck trailer motorcycle evehicle custom1 custom2" speed="24.59" length="8.00" shape="439.76,2127.54 433.74,2132.81"/>
    </edge>
    <edge id=":122900682-AddedOffRampNode_0" function="internal">
        <lane id=":122900682-AddedOffRampNode_0_0" index="0" allow="private emergency authority army vip passenger hov taxi bus coach delivery truck trailer motorcycle evehicle custom1 custom2" speed="24.59" length="8.73" shape="862.66,1651.05 863.37,1648.27 862.30,1645.94 861.24,1643.61 861.94,1640.83"/>
        <lane id=":122900682-AddedOffRampNode_0_1" index="1" allow="private emergency authority army vip passenger hov taxi bus coach delivery truck trailer motorcycle evehicle custom1 custom2" speed="24.59" length="8.73" shape="862.66,1651.05 863.65,1648.74 863.62,1646.85 863.59,1644.96 864.58,1642.65"/>
        <lane id=":122900682-AddedOffRampNode_0_2" index="2" allow="private emergency authority army vip passenger hov taxi bus coach delivery truck trailer motorcycle evehicle custom1 custom2" speed="24.59" length="8.73" shape="862.66,1651.05 867.21,1644.47"/>
        <lane id=":122900682-AddedOffRampNode_0_3" index="3" allow="private emergency authority army vip passenger hov taxi bus coach delivery truck trailer motorcycle evehicle custom1 custom2" speed="24.59" length="8.73" shape="865.29,1652.87 869.84,1646.29"/>
        <lane id=":122900682-AddedOffRampNode_0_4" index="4" allow="private emergency authority army vip passenger hov taxi bus coach delivery truck trailer motorcycle evehicle custom1 custom2" speed="24.59" length="8.73" shape="867.92,1654.69 872.47,1648.11"/>
    </edge>
    <edge id=":122900689-AddedOffRampNode_0" function="internal">
        <lane id=":122900689-AddedOffRampNode_0_0" index="0" allow="private emergency authority army vip passenger hov taxi bus coach delivery truck trailer motorcycle evehicle custom1 custom2" speed="39.44" length="8.20" shape="3706.57,869.84 3709.03,869.32 3710.56,868.21 3712.10,867.10 3714.55,866.59"/>
        <lane id=":122900689-AddedOffRampNode_0_1" index="1" allow="private emergency authority army vip passenger hov taxi bus coach delivery truck trailer motorcycle evehicle custom1 custom2" speed="39.44" length="8.20" shape="3706.57,869.84 3714.57,869.79"/>
        <lane id=":122900689-AddedOffRampNode_0_2" index="2" allow="private emergency authority army vip passenger hov taxi bus coach delivery truck trailer motorcycle evehicle custom1 custom2" speed="39.44" length="8.20" shape="3706.59,873.04 3714.59,872.99"/>
        <lane id=":122900689-AddedOffRampNode_0_3" index="3" allow="private emergency authority army vip passenger hov taxi bus coach delivery truck trailer motorcycle evehicle custom1 custom2" speed="39.44" length="8.20" shape="3706.61,876.24 3714.61,876.19"/>
    </edge>
    <edge id=":123561818#1-AddedOffRampNode_0" function="internal">
        <lane id=":123561818#1-AddedOffRampNode_0_0" index="0" allow="private emergency authority army vip passenger hov taxi bus coach delivery truck trailer motorcycle evehicle custom1 custom2" speed="24.59" length="8.16" shape="2293.52,2989.26 2295.45,2990.88 2297.27,2991.39 2299.09,2991.91 2301.01,2993.52"/>
        <lane id=":123561818#1-AddedOffRampNode_0_1" index="1" allow="private emergency authority army vip passenger hov taxi bus coach delivery truck trailer motorcycle evehicle custom1 custom2" speed="24.59" length="8.16" shape="2293.52,2989.26 2298.51,2995.52"/>
        <lane id=":123561818#1-AddedOffRampNode_0_2" index="2" allow="private emergency authority army vip passenger hov taxi bus coach delivery truck trailer motorcycle evehicle custom1 custom2" speed="24.59" length="8.16" shape="2291.02,2991.26 2296.01,2997.51"/>
        <lane id=":123561818#1-AddedOffRampNode_0_3" index="3" allow="private emergency authority army vip passenger hov taxi bus coach delivery truck trailer motorcycle evehicle custom1 custom2" speed="24.59" length="8.16" shape="2288.52,2993.26 2293.51,2999.51"/>
        <lane id=":123561818#1-AddedOffRampNode_0_4" index="4" allow="private emergency authority army vip passenger hov taxi bus coach delivery truck trailer motorcycle evehicle custom1 custom2" speed="24.59" length="8.16" shape="2286.02,2995.26 2291.01,3001.51"/>
    </edge>
    <edge id=":123561818#1-AddedOnRampNode_0" function="internal">
        <lane id=":123561818#1-AddedOnRampNode_0_0" index="0" allow="private emergency authority army vip passenger hov taxi bus coach delivery truck trailer motorcycle evehicle custom1 custom2" speed="24.59" length="8.00" shape="2203.26,2876.27 2208.26,2882.52"/>
        <lane id=":123561818#1-AddedOnRampNode_0_1" index="1" allow="private emergency authority army vip passenger hov taxi bus coach delivery truck trailer motorcycle evehicle custom1 custom2" speed="24.59" length="8.00" shape="2200.76,2878.27 2205.76,2884.52"/>
        <lane id=":123561818#1-AddedOnRampNode_0_2" index="2" allow="private emergency authority army vip passenger hov taxi bus coach delivery truck trailer motorcycle evehicle custom1 custom2" speed="24.59" length="8.00" shape="2198.26,2880.26 2203.26,2886.52"/>
        <lane id=":123561818#1-AddedOnRampNode_0_3" index="3" allow="private emergency authority army vip passenger hov taxi bus coach delivery truck trailer motorcycle evehicle custom1 custom2" speed="24.59" length="8.00" shape="2195.76,2882.26 2200.76,2888.51"/>
    </edge>
    <edge id=":123561826-AddedOffRampNode_0" function="internal">
        <lane id=":123561826-AddedOffRampNode_0_0" index="0" allow="private emergency authority army vip passenger hov taxi bus coach delivery truck trailer motorcycle evehicle custom1 custom2" speed="24.59" length="8.16" shape="2030.46,2618.22 2029.07,2616.12 2027.48,2615.10 2025.89,2614.08 2024.51,2611.99"/>
        <lane id=":123561826-AddedOffRampNode_0_1" index="1" allow="private emergency authority army vip passenger hov taxi bus coach delivery truck trailer motorcycle evehicle custom1 custom2" speed="24.59" length="8.16" shape="2030.46,2618.22 2027.48,2610.79"/>
        <lane id=":123561826-AddedOffRampNode_0_2" index="2" allow="private emergency authority army vip passenger hov taxi bus coach delivery truck trailer motorcycle evehicle custom1 custom2" speed="24.59" length="8.16" shape="2033.42,2617.03 2030.45,2609.60"/>
        <lane id=":123561826-AddedOffRampNode_0_3" index="3" allow="private emergency authority army vip passenger hov taxi bus coach delivery truck trailer motorcycle evehicle custom1 custom2" speed="24.59" length="8.16" shape="2036.39,2615.83 2033.42,2608.41"/>
        <lane id=":123561826-AddedOffRampNode_0_4" index="4" allow="private emergency authority army vip passenger hov taxi bus coach delivery truck trailer motorcycle evehicle custom1 custom2" speed="24.59" length="8.16" shape="2039.36,2614.64 2036.39,2607.22"/>
    </edge>
    <edge id=":123561830-AddedOffRampNode_0" function="internal">
        <lane id=":123561830-AddedOffRampNode_0_0" index="0" allow="private emergency authority army vip passenger hov taxi bus coach delivery truck trailer motorcycle evehicle custom1 custom2" speed="24.59" length="8.13" shape="2567.04,3364.04 2564.92,3362.68 2563.05,3362.40 2561.18,3362.12 2559.07,3360.76"/>
        <lane id=":123561830-AddedOffRampNode_0_1" index="1" allow="private emergency authority army vip passenger hov taxi bus coach delivery truck trailer motorcycle evehicle custom1 custom2" speed="24.59" length="8.13" shape="2567.04,3364.04 2561.30,3358.46"/>
        <lane id=":123561830-AddedOffRampNode_0_2" index="2" allow="private emergency authority army vip passenger hov taxi bus coach delivery truck trailer motorcycle evehicle custom1 custom2" speed="24.59" length="8.13" shape="2569.27,3361.75 2563.53,3356.17"/>
        <lane id=":123561830-AddedOffRampNode_0_3" index="3" allow="private emergency authority army vip passenger hov taxi bus coach delivery truck trailer motorcycle evehicle custom1 custom2" speed="24.59" length="8.13" shape="2571.50,3359.46 2565.76,3353.88"/>
        <lane id=":123561830-AddedOffRampNode_0_4" index="4" allow="private emergency authority army vip passenger hov taxi bus coach delivery truck trailer motorcycle evehicle custom1 custom2" speed="24.59" length="8.13" shape="2573.73,3357.16 2568.00,3351.58"/>
        <lane id=":123561830-AddedOffRampNode_0_5" index="5" allow="private emergency authority army vip passenger hov taxi bus coach delivery truck trailer motorcycle evehicle custom1 custom2" speed="24.59" length="8.13" shape="2575.96,3354.87 2570.23,3349.29"/>
    </edge>
    <edge id=":124100057-AddedOffRampNode_0" function="internal">
        <lane id=":124100057-AddedOffRampNode_0_0" index="0" allow="private emergency authority army vip passenger hov taxi bus coach delivery truck trailer motorcycle evehicle custom1 custom2" speed="24.59" length="8.16" shape="3530.80,2910.16 3530.51,2907.67 3529.55,2906.04 3528.59,2904.41 3528.30,2901.92"/>
        <lane id=":124100057-AddedOffRampNode_0_1" index="1" allow="private emergency authority army vip passenger hov taxi bus coach delivery truck trailer motorcycle evehicle custom1 custom2" speed="24.59" length="8.16" shape="3530.80,2910.16 3531.49,2902.19"/>
        <lane id=":124100057-AddedOffRampNode_0_2" index="2" allow="private emergency authority army vip passenger hov taxi bus coach delivery truck trailer motorcycle evehicle custom1 custom2" speed="24.59" length="8.16" shape="3533.99,2910.44 3534.68,2902.47"/>
        <lane id=":124100057-AddedOffRampNode_0_3" index="3" allow="private emergency authority army vip passenger hov taxi bus coach delivery truck trailer motorcycle evehicle custom1 custom2" speed="24.59" length="8.16" shape="3537.18,2910.71 3537.86,2902.74"/>
        <lane id=":124100057-AddedOffRampNode_0_4" index="4" allow="private emergency authority army vip passenger hov taxi bus coach delivery truck trailer motorcycle evehicle custom1 custom2" speed="24.59" length="8.16" shape="3540.36,2910.99 3541.05,2903.02"/>
    </edge>
    <edge id=":127679276-AddedOnRampNode_0" function="internal">
        <lane id=":127679276-AddedOnRampNode_0_0" index="0" allow="private emergency authority army vip passenger hov taxi bus coach delivery truck trailer motorcycle evehicle custom1 custom2" speed="22.22" length="8.00" shape="2709.47,3923.22 2713.77,3916.48"/>
        <lane id=":127679276-AddedOnRampNode_0_1" index="1" allow="private emergency authority army vip passenger hov taxi bus coach delivery truck trailer motorcycle evehicle custom1 custom2" speed="22.22" length="8.00" shape="2712.17,3924.94 2716.47,3918.19"/>
    </edge>
    <edge id=":1377803292_0" function="internal">
        <lane id=":1377803292_0_0" index="0" allow="private emergency authority army vip passenger hov taxi bus coach delivery truck trailer motorcycle evehicle custom1 custom2" speed="39.44" length="8.16" shape="2281.56,773.31 2283.88,772.80 2285.39,772.06 2286.89,771.30 2289.20,770.71"/>
        <lane id=":1377803292_0_1" index="1" allow="private emergency authority army vip passenger hov taxi bus coach delivery truck trailer motorcycle evehicle custom1 custom2" speed="39.44" length="8.16" shape="2281.56,773.31 2283.96,773.29 2285.62,773.64 2287.27,773.97 2289.66,773.88"/>
    </edge>
    <edge id=":1377803298_0" function="internal">
        <lane id=":1377803298_0_0" index="0" allow="private emergency authority army vip passenger hov taxi bus coach delivery truck trailer motorcycle evehicle custom1 custom2" speed="39.44" length="8.19" shape="2283.89,754.56 2281.56,755.13 2280.06,755.89 2278.56,756.67 2276.24,757.28"/>
        <lane id=":1377803298_0_1" index="1" allow="private emergency authority army vip passenger hov taxi bus coach delivery truck trailer motorcycle evehicle custom1 custom2" speed="39.44" length="8.19" shape="2283.89,754.56 2281.48,754.63 2279.81,754.31 2278.15,754.00 2275.75,754.12"/>
    </edge>
    <edge id=":13885935_0" function="internal">
        <lane id=":13885935_0_0" index="0" allow="private emergency authority army vip passenger hov taxi bus coach delivery truck trailer motorcycle evehicle custom1 custom2" speed="24.59" length="30.78" shape="2804.79,3513.71 2811.32,3520.30 2815.50,3525.19 2819.41,3530.19 2825.18,3537.11"/>
        <lane id=":13885935_0_1" index="1" allow="private emergency authority army vip passenger hov taxi bus coach delivery truck trailer motorcycle evehicle custom1 custom2" speed="24.59" length="30.78" shape="2802.58,3516.02 2809.04,3522.54 2813.15,3527.36 2817.02,3532.31 2822.76,3539.21"/>
        <lane id=":13885935_0_2" index="2" allow="private emergency authority army vip passenger hov taxi bus coach delivery truck trailer motorcycle evehicle custom1 custom2" speed="24.59" length="30.78" shape="2800.37,3518.33 2806.75,3524.77 2810.79,3529.53 2814.62,3534.43 2820.35,3541.32"/>
    </edge>
    <edge id=":13885935_3" function="internal">
        <lane id=":13885935_3_0" index="0" allow="private emergency authority army vip passenger hov taxi bus coach delivery truck trailer motorcycle evehicle custom1 custom2" speed="23.40" length="30.04" shape="2798.16,3520.65 2804.98,3527.41 2809.86,3532.81 2813.77,3537.81 2817.69,3543.38"/>
        <lane id=":13885935_3_1" index="1" allow="private emergency authority army vip passenger hov taxi bus coach delivery truck trailer motorcycle evehicle custom1 custom2" speed="23.40" length="29.39" shape="2795.95,3522.96 2802.60,3529.55 2807.35,3534.79 2811.17,3539.67 2815.06,3545.20"/>
    </edge>
    <edge id=":148249792-AddedOffRampNode_0" function="internal">
        <lane id=":148249792-AddedOffRampNode_0_0" index="0" allow="private emergency authority army vip passenger hov taxi bus coach delivery truck trailer motorcycle evehicle custom1 custom2" speed="24.59" length="8.16" shape="2727.40,3444.16 2729.53,3445.50 2731.40,3445.76 2733.27,3446.03 2735.40,3447.37"/>
        <lane id=":148249792-AddedOffRampNode_0_1" index="1" allow="private emergency authority army vip passenger hov taxi bus coach delivery truck trailer motorcycle evehicle custom1 custom2" speed="24.59" length="8.16" shape="2727.40,3444.16 2733.19,3449.69"/>
        <lane id=":148249792-AddedOffRampNode_0_2" index="2" allow="private emergency authority army vip passenger hov taxi bus coach delivery truck trailer motorcycle evehicle custom1 custom2" speed="24.59" length="8.16" shape="2725.19,3446.47 2730.97,3452.00"/>
        <lane id=":148249792-AddedOffRampNode_0_3" index="3" allow="private emergency authority army vip passenger hov taxi bus coach delivery truck trailer motorcycle evehicle custom1 custom2" speed="24.59" length="8.16" shape="2722.98,3448.78 2728.76,3454.31"/>
        <lane id=":148249792-AddedOffRampNode_0_4" index="4" allow="private emergency authority army vip passenger hov taxi bus coach delivery truck trailer motorcycle evehicle custom1 custom2" speed="24.59" length="8.16" shape="2720.77,3451.10 2726.55,3456.62"/>
    </edge>
    <edge id=":148249792-AddedOnRampNode_0" function="internal">
        <lane id=":148249792-AddedOnRampNode_0_0" index="0" allow="private emergency authority army vip passenger hov taxi bus coach delivery truck trailer motorcycle evehicle custom1 custom2" speed="24.59" length="8.00" shape="2515.95,3236.97 2521.62,3242.62"/>
        <lane id=":148249792-AddedOnRampNode_0_1" index="1" allow="private emergency authority army vip passenger hov taxi bus coach delivery truck trailer motorcycle evehicle custom1 custom2" speed="24.59" length="8.00" shape="2513.69,3239.24 2519.36,3244.88"/>
        <lane id=":148249792-AddedOnRampNode_0_2" index="2" allow="private emergency authority army vip passenger hov taxi bus coach delivery truck trailer motorcycle evehicle custom1 custom2" speed="24.59" length="8.00" shape="2511.44,3241.50 2517.10,3247.15"/>
        <lane id=":148249792-AddedOnRampNode_0_3" index="3" allow="private emergency authority army vip passenger hov taxi bus coach delivery truck trailer motorcycle evehicle custom1 custom2" speed="24.59" length="8.00" shape="2509.18,3243.77 2514.84,3249.42"/>
    </edge>
    <edge id=":148252577#1-AddedOnRampNode_0" function="internal">
        <lane id=":148252577#1-AddedOnRampNode_0_0" index="0" allow="private emergency authority army vip passenger hov taxi bus coach delivery truck trailer motorcycle evehicle custom1 custom2" speed="29.06" length="8.00" shape="2891.07,3958.12 2883.57,3960.90"/>
        <lane id=":148252577#1-AddedOnRampNode_0_1" index="1" allow="private emergency authority army vip passenger hov taxi bus coach delivery truck trailer motorcycle evehicle custom1 custom2" speed="29.06" length="8.00" shape="2889.96,3955.12 2882.46,3957.90"/>
        <lane id=":148252577#1-AddedOnRampNode_0_2" index="2" allow="private emergency authority army vip passenger hov taxi bus coach delivery truck trailer motorcycle evehicle custom1 custom2" speed="29.06" length="8.00" shape="2888.85,3952.12 2881.35,3954.90"/>
        <lane id=":148252577#1-AddedOnRampNode_0_3" index="3" allow="private emergency authority army vip passenger hov taxi bus coach delivery truck trailer motorcycle evehicle custom1 custom2" speed="29.06" length="8.00" shape="2887.74,3949.12 2880.23,3951.90"/>
    </edge>
    <edge id=":148252599-AddedOnRampNode_0" function="internal">
        <lane id=":148252599-AddedOnRampNode_0_0" index="0" allow="private emergency authority army vip passenger hov taxi bus coach delivery truck trailer motorcycle evehicle custom1 custom2" speed="24.59" length="8.00" shape="4014.43,1021.88 4014.26,1029.88"/>
        <lane id=":148252599-AddedOnRampNode_0_1" index="1" allow="private emergency authority army vip passenger hov taxi bus coach delivery truck trailer motorcycle evehicle custom1 custom2" speed="24.59" length="8.00" shape="4011.23,1021.81 4011.06,1029.81"/>
        <lane id=":148252599-AddedOnRampNode_0_2" index="2" allow="private emergency authority army vip passenger hov taxi bus coach delivery truck trailer motorcycle evehicle custom1 custom2" speed="24.59" length="8.00" shape="4008.03,1021.74 4007.86,1029.74"/>
        <lane id=":148252599-AddedOnRampNode_0_3" index="3" allow="private emergency authority army vip passenger hov taxi bus coach delivery truck trailer motorcycle evehicle custom1 custom2" speed="24.59" length="8.00" shape="4004.83,1021.67 4004.66,1029.67"/>
    </edge>
    <edge id=":148252612-AddedOffRampNode_0" function="internal">
        <lane id=":148252612-AddedOffRampNode_0_0" index="0" allow="private emergency authority army vip passenger hov taxi bus coach delivery truck trailer motorcycle evehicle custom1 custom2" speed="24.59" length="8.13" shape="3839.65,2033.08 3840.02,2035.57 3841.03,2037.17 3842.04,2038.76 3842.40,2041.25"/>
        <lane id=":148252612-AddedOffRampNode_0_1" index="1" allow="private emergency authority army vip passenger hov taxi bus coach delivery truck trailer motorcycle evehicle custom1 custom2" speed="24.59" length="8.13" shape="3839.65,2033.08 3839.21,2041.07"/>
        <lane id=":148252612-AddedOffRampNode_0_2" index="2" allow="private emergency authority army vip passenger hov taxi bus coach delivery truck trailer motorcycle evehicle custom1 custom2" speed="24.59" length="8.13" shape="3836.46,2032.90 3836.01,2040.89"/>
        <lane id=":148252612-AddedOffRampNode_0_3" index="3" allow="private emergency authority army vip passenger hov taxi bus coach delivery truck trailer motorcycle evehicle custom1 custom2" speed="24.59" length="8.13" shape="3833.26,2032.72 3832.82,2040.71"/>
        <lane id=":148252612-AddedOffRampNode_0_4" index="4" allow="private emergency authority army vip passenger hov taxi bus coach delivery truck trailer motorcycle evehicle custom1 custom2" speed="24.59" length="8.13" shape="3830.07,2032.54 3829.62,2040.53"/>
        <lane id=":148252612-AddedOffRampNode_0_5" index="5" allow="private emergency authority army vip passenger hov taxi bus coach delivery truck trailer motorcycle evehicle custom1 custom2" speed="24.59" length="8.13" shape="3826.87,2032.36 3826.43,2040.35"/>
    </edge>
    <edge id=":148252612-AddedOnRampNode_0" function="internal">
        <lane id=":148252612-AddedOnRampNode_0_0" index="0" allow="private emergency authority army vip passenger hov taxi bus coach delivery truck trailer motorcycle evehicle custom1 custom2" speed="24.59" length="8.00" shape="3900.77,1632.22 3898.74,1639.95"/>
        <lane id=":148252612-AddedOnRampNode_0_1" index="1" allow="private emergency authority army vip passenger hov taxi bus coach delivery truck trailer motorcycle evehicle custom1 custom2" speed="24.59" length="8.00" shape="3897.68,1631.40 3895.64,1639.14"/>
        <lane id=":148252612-AddedOnRampNode_0_2" index="2" allow="private emergency authority army vip passenger hov taxi bus coach delivery truck trailer motorcycle evehicle custom1 custom2" speed="24.59" length="8.00" shape="3894.58,1630.59 3892.55,1638.33"/>
        <lane id=":148252612-AddedOnRampNode_0_3" index="3" allow="private emergency authority army vip passenger hov taxi bus coach delivery truck trailer motorcycle evehicle custom1 custom2" speed="24.59" length="8.00" shape="3891.49,1629.78 3889.45,1637.51"/>
        <lane id=":148252612-AddedOnRampNode_0_4" index="4" allow="private emergency authority army vip passenger hov taxi bus coach delivery truck trailer motorcycle evehicle custom1 custom2" speed="24.59" length="8.00" shape="3888.39,1628.96 3886.36,1636.70"/>
    </edge>
    <edge id=":148252680-AddedOnRampNode_0" function="internal">
        <lane id=":148252680-AddedOnRampNode_0_0" index="0" allow="private emergency authority army vip passenger hov taxi bus coach delivery truck trailer motorcycle evehicle custom1 custom2" speed="24.59" length="8.00" shape="1197.46,1984.25 1205.23,1986.17"/>
        <lane id=":148252680-AddedOnRampNode_0_1" index="1" allow="private emergency authority army vip passenger hov taxi bus coach delivery truck trailer motorcycle evehicle custom1 custom2" speed="24.59" length="8.00" shape="1196.69,1987.36 1204.46,1989.28"/>
        <lane id=":148252680-AddedOnRampNode_0_2" index="2" allow="private emergency authority army vip passenger hov taxi bus coach delivery truck trailer motorcycle evehicle custom1 custom2" speed="24.59" length="8.00" shape="1195.93,1990.47 1203.69,1992.38"/>
    </edge>
    <edge id=":148252741-AddedOnRampNode_0" function="internal">
        <lane id=":148252741-AddedOnRampNode_0_0" index="0" allow="private emergency authority army vip passenger hov taxi bus coach delivery truck trailer motorcycle evehicle custom1 custom2" speed="24.59" length="8.00" shape="878.63,1676.38 874.10,1682.97"/>
        <lane id=":148252741-AddedOnRampNode_0_1" index="1" allow="private emergency authority army vip passenger hov taxi bus coach delivery truck trailer motorcycle evehicle custom1 custom2" speed="24.59" length="8.00" shape="876.00,1674.57 871.46,1681.16"/>
        <lane id=":148252741-AddedOnRampNode_0_2" index="2" allow="private emergency authority army vip passenger hov taxi bus coach delivery truck trailer motorcycle evehicle custom1 custom2" speed="24.59" length="8.00" shape="873.36,1672.75 868.83,1679.34"/>
    </edge>
    <edge id=":148257387-AddedOnRampNode_0" function="internal">
        <lane id=":148257387-AddedOnRampNode_0_0" index="0" allow="private emergency authority army vip passenger hov taxi bus coach delivery truck trailer motorcycle evehicle custom1 custom2" speed="24.59" length="8.00" shape="2803.23,639.74 2795.43,641.53"/>
        <lane id=":148257387-AddedOnRampNode_0_1" index="1" allow="private emergency authority army vip passenger hov taxi bus coach delivery truck trailer motorcycle evehicle custom1 custom2" speed="24.59" length="8.00" shape="2802.52,636.62 2794.72,638.41"/>
        <lane id=":148257387-AddedOnRampNode_0_2" index="2" allow="private emergency authority army vip passenger hov taxi bus coach delivery truck trailer motorcycle evehicle custom1 custom2" speed="24.59" length="8.00" shape="2801.80,633.50 2794.01,635.29"/>
        <lane id=":148257387-AddedOnRampNode_0_3" index="3" allow="private emergency authority army vip passenger hov taxi bus coach delivery truck trailer motorcycle evehicle custom1 custom2" speed="24.59" length="8.00" shape="2801.09,630.38 2793.29,632.17"/>
    </edge>
    <edge id=":148284701-AddedOffRampNode_0" function="internal">
        <lane id=":148284701-AddedOffRampNode_0_0" index="0" allow="private emergency authority army vip passenger hov taxi bus coach delivery truck trailer motorcycle evehicle custom1 custom2" speed="24.59" length="8.20" shape="1222.68,2009.71 1220.17,2009.65 1218.42,2010.37 1216.68,2011.10 1214.17,2011.03"/>
        <lane id=":148284701-AddedOffRampNode_0_1" index="1" allow="private emergency authority army vip passenger hov taxi bus coach delivery truck trailer motorcycle evehicle custom1 custom2" speed="24.59" length="8.20" shape="1222.68,2009.71 1214.89,2007.91"/>
        <lane id=":148284701-AddedOffRampNode_0_2" index="2" allow="private emergency authority army vip passenger hov taxi bus coach delivery truck trailer motorcycle evehicle custom1 custom2" speed="24.59" length="8.20" shape="1223.40,2006.59 1215.61,2004.80"/>
        <lane id=":148284701-AddedOffRampNode_0_3" index="3" allow="private emergency authority army vip passenger hov taxi bus coach delivery truck trailer motorcycle evehicle custom1 custom2" speed="24.59" length="8.20" shape="1224.12,2003.48 1216.33,2001.68"/>
    </edge>
    <edge id=":148385483#1-AddedOnRampNode_0" function="internal">