<?xml version="1.0" encoding="UTF-8"?>

<!-- generated on 2024-07-30 22:59:49 by Eclipse SUMO netedit Version 1.20.0
<configuration xmlns:xsi="http://www.w3.org/2001/XMLSchema-instance" xsi:noNamespaceSchemaLocation="http://sumo.dlr.de/xsd/neteditConfiguration.xsd">

    <input>
        <sumo-net-file value="/Users/zihangwei/Documents/SUMO_TrafficNetwork/2DNetwork/Network_Files_3/Traffic_Net.net.xml"/>
    </input>

    <output>
        <output-file value="/Users/zihangwei/Documents/SUMO_TrafficNetwork/2DNetwork/Network_Files_3/Traffic_Net.net.xml"/>
        <output.street-names value="true"/>
    </output>

    <processing>
        <geometry.min-radius.fix.railways value="false"/>
        <geometry.max-grade.fix value="false"/>
        <offset.disable-normalization value="true"/>
        <lefthand value="0"/>
    </processing>

    <junctions>
        <no-turnarounds value="true"/>
        <junctions.corner-detail value="5"/>
        <junctions.limit-turn-speed value="5.50"/>
        <rectangular-lane-cut value="0"/>
    </junctions>

    <pedestrian>
        <walkingareas value="0"/>
    </pedestrian>

</configuration>
-->

<net version="1.20" junctionCornerDetail="5" limitTurnSpeed="5.50" xmlns:xsi="http://www.w3.org/2001/XMLSchema-instance" xsi:noNamespaceSchemaLocation="http://sumo.dlr.de/xsd/net_file.xsd">

    <location netOffset="-380318.61,-3772925.31" convBoundary="0.00,0.00,7932.15,8923.15" origBoundary="-118.298322,34.090877,-118.192823,34.171513" projParameter="+proj=utm +zone=11 +ellps=WGS84 +datum=WGS84 +units=m +no_defs"/>

    <type id="highway.motorway" priority="14" numLanes="2" speed="39.44" allow="private emergency authority army vip passenger hov taxi bus coach delivery truck trailer motorcycle evehicle custom1 custom2" oneway="1"/>
    <type id="highway.motorway_link" priority="9" numLanes="1" speed="22.22" allow="private emergency authority army vip passenger hov taxi bus coach delivery truck trailer motorcycle evehicle custom1 custom2" oneway="1"/>

    <edge id=":1002572925-AddedOffRampNode_0" function="internal">
        <lane id=":1002572925-AddedOffRampNode_0_0" index="0" allow="private emergency authority army vip passenger hov taxi bus coach delivery truck trailer motorcycle evehicle custom1 custom2" speed="29.06" length="8.13" shape="6857.79,6115.21 6855.61,6116.46 6854.50,6118.00 6853.39,6119.53 6851.22,6120.79"/>
        <lane id=":1002572925-AddedOffRampNode_0_1" index="1" allow="private emergency authority army vip passenger hov taxi bus coach delivery truck trailer motorcycle evehicle custom1 custom2" speed="29.06" length="8.13" shape="6857.79,6115.21 6850.20,6117.75"/>
        <lane id=":1002572925-AddedOffRampNode_0_2" index="2" allow="private emergency authority army vip passenger hov taxi bus coach delivery truck trailer motorcycle evehicle custom1 custom2" speed="29.06" length="8.13" shape="6856.77,6112.17 6849.18,6114.72"/>
        <lane id=":1002572925-AddedOffRampNode_0_3" index="3" allow="private emergency authority army vip passenger hov taxi bus coach delivery truck trailer motorcycle evehicle custom1 custom2" speed="29.06" length="8.13" shape="6855.75,6109.14 6848.17,6111.68"/>
        <lane id=":1002572925-AddedOffRampNode_0_4" index="4" allow="private emergency authority army vip passenger hov taxi bus coach delivery truck trailer motorcycle evehicle custom1 custom2" speed="29.06" length="8.13" shape="6854.74,6106.10 6847.15,6108.65"/>
        <lane id=":1002572925-AddedOffRampNode_0_5" index="5" allow="private emergency authority army vip passenger hov taxi bus coach delivery truck trailer motorcycle evehicle custom1 custom2" speed="29.06" length="8.13" shape="6853.72,6103.07 6846.14,6105.61"/>
    </edge>
    <edge id=":11931767492_0" function="internal">
        <lane id=":11931767492_0_0" index="0" allow="private emergency authority army vip passenger hov taxi bus coach delivery truck trailer motorcycle evehicle custom1 custom2" speed="29.06" length="0.30" shape="4014.75,550.61 4014.91,550.86"/>
        <lane id=":11931767492_0_1" index="1" allow="private emergency authority army vip passenger hov taxi bus coach delivery truck trailer motorcycle evehicle custom1 custom2" speed="29.06" length="0.30" shape="4012.07,552.37 4012.24,552.62"/>
        <lane id=":11931767492_0_2" index="2" allow="private emergency authority army vip passenger hov taxi bus coach delivery truck trailer motorcycle evehicle custom1 custom2" speed="29.06" length="0.30" shape="4009.40,554.12 4009.56,554.38"/>
        <lane id=":11931767492_0_3" index="3" allow="private emergency authority army vip passenger hov taxi bus coach delivery truck trailer motorcycle evehicle custom1 custom2" speed="29.06" length="0.30" shape="4006.72,555.88 4006.89,556.13"/>
        <lane id=":11931767492_0_4" index="4" allow="private emergency authority army vip passenger hov taxi bus coach delivery truck trailer motorcycle evehicle custom1 custom2" speed="29.06" length="0.30" shape="4004.05,557.64 4004.21,557.89"/>
    </edge>
    <edge id=":123461838-AddedOffRampNode_0" function="internal">
        <lane id=":123461838-AddedOffRampNode_0_0" index="0" allow="private emergency authority army vip passenger hov taxi bus coach delivery truck trailer motorcycle evehicle custom1 custom2" speed="29.06" length="8.16" shape="6517.18,5670.33 6518.27,5672.59 6519.71,5673.82 6521.15,5675.04 6522.23,5677.31"/>
        <lane id=":123461838-AddedOffRampNode_0_1" index="1" allow="private emergency authority army vip passenger hov taxi bus coach delivery truck trailer motorcycle evehicle custom1 custom2" speed="29.06" length="8.16" shape="6517.18,5670.33 6519.13,5678.09"/>
        <lane id=":123461838-AddedOffRampNode_0_2" index="2" allow="private emergency authority army vip passenger hov taxi bus coach delivery truck trailer motorcycle evehicle custom1 custom2" speed="29.06" length="8.16" shape="6514.08,5671.11 6516.02,5678.87"/>
        <lane id=":123461838-AddedOffRampNode_0_3" index="3" allow="private emergency authority army vip passenger hov taxi bus coach delivery truck trailer motorcycle evehicle custom1 custom2" speed="29.06" length="8.16" shape="6510.98,5671.88 6512.92,5679.64"/>
        <lane id=":123461838-AddedOffRampNode_0_4" index="4" allow="private emergency authority army vip passenger hov taxi bus coach delivery truck trailer motorcycle evehicle custom1 custom2" speed="29.06" length="8.16" shape="6507.87,5672.66 6509.82,5680.42"/>
    </edge>
    <edge id=":123461841-AddedOffRampNode_0" function="internal">
        <lane id=":123461841-AddedOffRampNode_0_0" index="0" allow="private emergency authority army vip passenger hov taxi bus coach delivery truck trailer motorcycle evehicle custom1 custom2" speed="29.06" length="8.16" shape="6400.00,3923.92 6399.72,3921.42 6398.76,3919.79 6397.80,3918.17 6397.51,3915.67"/>
        <lane id=":123461841-AddedOffRampNode_0_1" index="1" allow="private emergency authority army vip passenger hov taxi bus coach delivery truck trailer motorcycle evehicle custom1 custom2" speed="29.06" length="8.16" shape="6400.00,3923.92 6400.70,3915.95"/>
        <lane id=":123461841-AddedOffRampNode_0_2" index="2" allow="private emergency authority army vip passenger hov taxi bus coach delivery truck trailer motorcycle evehicle custom1 custom2" speed="29.06" length="8.16" shape="6403.19,3924.20 6403.89,3916.23"/>
        <lane id=":123461841-AddedOffRampNode_0_3" index="3" allow="private emergency authority army vip passenger hov taxi bus coach delivery truck trailer motorcycle evehicle custom1 custom2" speed="29.06" length="8.16" shape="6406.38,3924.47 6407.08,3916.50"/>
        <lane id=":123461841-AddedOffRampNode_0_4" index="4" allow="private emergency authority army vip passenger hov taxi bus coach delivery truck trailer motorcycle evehicle custom1 custom2" speed="29.06" length="8.16" shape="6409.57,3924.75 6410.26,3916.78"/>
    </edge>
    <edge id=":123461844-AddedOffRampNode_0" function="internal">
        <lane id=":123461844-AddedOffRampNode_0_0" index="0" allow="private emergency authority army vip passenger hov taxi bus coach delivery truck trailer motorcycle evehicle custom1 custom2" speed="29.06" length="8.16" shape="3994.80,526.06 3996.57,527.84 3998.33,528.52 4000.09,529.20 4001.86,530.99"/>
        <lane id=":123461844-AddedOffRampNode_0_1" index="1" allow="private emergency authority army vip passenger hov taxi bus coach delivery truck trailer motorcycle evehicle custom1 custom2" speed="29.06" length="8.16" shape="3994.80,526.06 3999.19,532.74"/>
        <lane id=":123461844-AddedOffRampNode_0_2" index="2" allow="private emergency authority army vip passenger hov taxi bus coach delivery truck trailer motorcycle evehicle custom1 custom2" speed="29.06" length="8.16" shape="3992.13,527.81 3996.51,534.50"/>
        <lane id=":123461844-AddedOffRampNode_0_3" index="3" allow="private emergency authority army vip passenger hov taxi bus coach delivery truck trailer motorcycle evehicle custom1 custom2" speed="29.06" length="8.16" shape="3989.45,529.57 3993.84,536.26"/>
        <lane id=":123461844-AddedOffRampNode_0_4" index="4" allow="private emergency authority army vip passenger hov taxi bus coach delivery truck trailer motorcycle evehicle custom1 custom2" speed="29.06" length="8.16" shape="3986.77,531.32 3991.16,538.01"/>
    </edge>
    <edge id=":123461888-AddedOffRampNode_0" function="internal">
        <lane id=":123461888-AddedOffRampNode_0_0" index="0" allow="private emergency authority army vip passenger hov taxi bus coach delivery truck trailer motorcycle evehicle custom1 custom2" speed="29.06" length="8.27" shape="4396.25,1912.70 4395.34,1910.33 4394.05,1908.94 4392.82,1907.53 4392.07,1905.14"/>
        <lane id=":123461888-AddedOffRampNode_0_1" index="1" allow="private emergency authority army vip passenger hov taxi bus coach delivery truck trailer motorcycle evehicle custom1 custom2" speed="29.06" length="8.27" shape="4396.25,1912.70 4395.25,1904.77"/>
        <lane id=":123461888-AddedOffRampNode_0_2" index="2" allow="private emergency authority army vip passenger hov taxi bus coach delivery truck trailer motorcycle evehicle custom1 custom2" speed="29.06" length="8.27" shape="4399.44,1912.34 4398.43,1904.40"/>
    </edge>
    <edge id=":123570156-AddedOffRampNode_0" function="internal">
        <lane id=":123570156-AddedOffRampNode_0_0" index="0" allow="private emergency authority army vip passenger hov taxi bus coach delivery truck trailer motorcycle evehicle custom1 custom2" speed="29.06" length="8.11" shape="2674.21,7192.04 2671.70,7191.88 2669.93,7192.53 2668.16,7193.19 2665.65,7193.02"/>
        <lane id=":123570156-AddedOffRampNode_0_1" index="1" allow="private emergency authority army vip passenger hov taxi bus coach delivery truck trailer motorcycle evehicle custom1 custom2" speed="29.06" length="8.11" shape="2674.21,7192.04 2666.49,7189.94"/>
        <lane id=":123570156-AddedOffRampNode_0_2" index="2" allow="private emergency authority army vip passenger hov taxi bus coach delivery truck trailer motorcycle evehicle custom1 custom2" speed="29.06" length="8.11" shape="2675.05,7188.95 2667.33,7186.85"/>
        <lane id=":123570156-AddedOffRampNode_0_3" index="3" allow="private emergency authority army vip passenger hov taxi bus coach delivery truck trailer motorcycle evehicle custom1 custom2" speed="29.06" length="8.11" shape="2675.89,7185.86 2668.17,7183.76"/>
        <lane id=":123570156-AddedOffRampNode_0_4" index="4" allow="private emergency authority army vip passenger hov taxi bus coach delivery truck trailer motorcycle evehicle custom1 custom2" speed="29.06" length="8.11" shape="2676.73,7182.78 2669.01,7180.67"/>
        <lane id=":123570156-AddedOffRampNode_0_5" index="5" allow="private emergency authority army vip passenger hov taxi bus coach delivery truck trailer motorcycle evehicle custom1 custom2" speed="29.06" length="8.11" shape="2677.57,7179.69 2669.85,7177.58"/>
        <lane id=":123570156-AddedOffRampNode_0_6" index="6" allow="private emergency authority army vip passenger hov taxi bus coach delivery truck trailer motorcycle evehicle custom1 custom2" speed="29.06" length="8.11" shape="2678.41,7176.60 2670.69,7174.50"/>
    </edge>
    <edge id=":124100069-AddedOffRampNode_0" function="internal">
        <lane id=":124100069-AddedOffRampNode_0_0" index="0" allow="private emergency authority army vip passenger hov taxi bus coach delivery truck trailer motorcycle evehicle custom1 custom2" speed="29.06" length="8.13" shape="2006.21,5238.65 2006.14,5241.16 2006.86,5242.91 2007.58,5244.66 2007.51,5247.17"/>
        <lane id=":124100069-AddedOffRampNode_0_1" index="1" allow="private emergency authority army vip passenger hov taxi bus coach delivery truck trailer motorcycle evehicle custom1 custom2" speed="29.06" length="8.13" shape="2006.21,5238.65 2004.39,5246.44"/>
        <lane id=":124100069-AddedOffRampNode_0_2" index="2" allow="private emergency authority army vip passenger hov taxi bus coach delivery truck trailer motorcycle evehicle custom1 custom2" speed="29.06" length="8.13" shape="2003.10,5237.92 2001.28,5245.71"/>
        <lane id=":124100069-AddedOffRampNode_0_3" index="3" allow="private emergency authority army vip passenger hov taxi bus coach delivery truck trailer motorcycle evehicle custom1 custom2" speed="29.06" length="8.13" shape="1999.98,5237.19 1998.16,5244.98"/>
        <lane id=":124100069-AddedOffRampNode_0_4" index="4" allow="private emergency authority army vip passenger hov taxi bus coach delivery truck trailer motorcycle evehicle custom1 custom2" speed="29.06" length="8.13" shape="1996.87,5236.46 1995.04,5244.25"/>
        <lane id=":124100069-AddedOffRampNode_0_5" index="5" allow="private emergency authority army vip passenger hov taxi bus coach delivery truck trailer motorcycle evehicle custom1 custom2" speed="29.06" length="8.13" shape="1993.75,5235.73 1991.93,5243.52"/>
    </edge>
    <edge id=":1340586219_0" function="internal">
        <lane id=":1340586219_0_0" index="0" allow="private emergency authority army vip passenger hov taxi bus coach delivery truck trailer motorcycle evehicle custom1 custom2" speed="34.25" length="0.30" shape="2131.71,7043.71 2131.42,7043.63"/>
        <lane id=":1340586219_0_1" index="1" allow="private emergency authority army vip passenger hov taxi bus coach delivery truck trailer motorcycle evehicle custom1 custom2" speed="34.25" length="0.30" shape="2132.53,7040.61 2132.24,7040.54"/>
        <lane id=":1340586219_0_2" index="2" allow="private emergency authority army vip passenger hov taxi bus coach delivery truck trailer motorcycle evehicle custom1 custom2" speed="34.25" length="0.30" shape="2133.36,7037.52 2133.07,7037.45"/>
        <lane id=":1340586219_0_3" index="3" allow="private emergency authority army vip passenger hov taxi bus coach delivery truck trailer motorcycle evehicle custom1 custom2" speed="34.25" length="0.30" shape="2134.18,7034.43 2133.90,7034.35"/>
    </edge>
    <edge id=":1376737817_0" function="internal">
        <lane id=":1376737817_0_0" index="0" allow="private emergency authority army vip passenger hov taxi bus coach delivery truck trailer motorcycle evehicle custom1 custom2" speed="29.06" length="8.70" shape="3971.42,537.50 3969.79,535.73 3968.09,535.07 3966.35,534.44 3964.59,532.75"/>
        <lane id=":1376737817_0_1" index="1" allow="private emergency authority army vip passenger hov taxi bus coach delivery truck trailer motorcycle evehicle custom1 custom2" speed="29.06" length="8.70" shape="3974.17,535.86 3972.51,534.04 3970.79,533.35 3969.02,532.68 3967.23,530.94"/>
        <lane id=":1376737817_0_2" index="2" allow="private emergency authority army vip passenger hov taxi bus coach delivery truck trailer motorcycle evehicle custom1 custom2" speed="29.06" length="8.70" shape="3976.92,534.23 3975.23,532.36 3973.48,531.62 3971.69,530.91 3969.87,529.13"/>
    </edge>
    <edge id=":1376737820_0" function="internal">
        <lane id=":1376737820_0_0" index="0" allow="private emergency authority army vip passenger hov taxi bus coach delivery truck trailer motorcycle evehicle custom1 custom2" speed="25.64" length="3.08" shape="6350.18,4243.39 6350.63,4240.34"/>
    </edge>
    <edge id=":1376737820_1" function="internal">
        <lane id=":1376737820_1_0" index="0" allow="private emergency authority army vip passenger hov taxi bus coach delivery truck trailer motorcycle evehicle custom1 custom2" speed="29.06" length="2.94" shape="6353.36,4243.82 6353.84,4240.83"/>
        <lane id=":1376737820_1_1" index="1" allow="private emergency authority army vip passenger hov taxi bus coach delivery truck trailer motorcycle evehicle custom1 custom2" speed="29.06" length="2.94" shape="6356.53,4244.25 6357.01,4241.32"/>
        <lane id=":1376737820_1_2" index="2" allow="private emergency authority army vip passenger hov taxi bus coach delivery truck trailer motorcycle evehicle custom1 custom2" speed="29.06" length="2.94" shape="6359.70,4244.68 6360.17,4241.80"/>
        <lane id=":1376737820_1_3" index="3" allow="private emergency authority army vip passenger hov taxi bus coach delivery truck trailer motorcycle evehicle custom1 custom2" speed="29.06" length="2.94" shape="6362.87,4245.11 6363.34,4242.29"/>
    </edge>
    <edge id=":1377536905_0" function="internal">
        <lane id=":1377536905_0_0" index="0" allow="private emergency authority army vip passenger hov taxi bus coach delivery truck trailer motorcycle evehicle custom1 custom2" speed="34.25" length="0.28" shape="1071.04,6949.22 1071.23,6949.10"/>
        <lane id=":1377536905_0_1" index="1" allow="private emergency authority army vip passenger hov taxi bus coach delivery truck trailer motorcycle evehicle custom1 custom2" speed="34.25" length="0.28" shape="1072.77,6951.92 1073.01,6951.76"/>
        <lane id=":1377536905_0_2" index="2" allow="private emergency authority army vip passenger hov taxi bus coach delivery truck trailer motorcycle evehicle custom1 custom2" speed="34.25" length="0.28" shape="1074.50,6954.61 1074.79,6954.42"/>
    </edge>
    <edge id=":1377536908_0" function="internal">
        <lane id=":1377536908_0_0" index="0" allow="private emergency authority army vip passenger hov taxi bus coach delivery truck trailer motorcycle evehicle custom1 custom2" speed="34.25" length="8.21" shape="1990.07,7002.52 1987.69,7002.14 1986.00,7002.26 1984.31,7002.37 1981.93,7001.99"/>
        <lane id=":1377536908_0_1" index="1" allow="private emergency authority army vip passenger hov taxi bus coach delivery truck trailer motorcycle evehicle custom1 custom2" speed="34.25" length="8.21" shape="1990.90,6999.43 1988.52,6999.05 1986.83,6999.17 1985.14,6999.28 1982.76,6998.90"/>
        <lane id=":1377536908_0_2" index="2" allow="private emergency authority army vip passenger hov taxi bus coach delivery truck trailer motorcycle evehicle custom1 custom2" speed="34.25" length="8.21" shape="1991.72,6996.34 1989.35,6995.96 1987.66,6996.08 1985.97,6996.19 1983.59,6995.81"/>
    </edge>
    <edge id=":1377536917_0" function="internal">
        <lane id=":1377536917_0_0" index="0" allow="private emergency authority army vip passenger hov taxi bus coach delivery truck trailer motorcycle evehicle custom1 custom2" speed="29.06" length="3.37" shape="2379.23,7116.25 2375.95,7115.34"/>
        <lane id=":1377536917_0_1" index="1" allow="private emergency authority army vip passenger hov taxi bus coach delivery truck trailer motorcycle evehicle custom1 custom2" speed="29.06" length="3.37" shape="2380.04,7113.15 2376.83,7112.27"/>
    </edge>
    <edge id=":1377536917_2" function="internal">
        <lane id=":1377536917_2_0" index="0" allow="private emergency authority army vip passenger hov taxi bus coach delivery truck trailer motorcycle evehicle custom1 custom2" speed="29.06" length="3.10" shape="2380.84,7110.05 2377.71,7109.23"/>
        <lane id=":1377536917_2_1" index="1" allow="private emergency authority army vip passenger hov taxi bus coach delivery truck trailer motorcycle evehicle custom1 custom2" speed="29.06" length="3.10" shape="2381.64,7106.96 2378.60,7106.15"/>
        <lane id=":1377536917_2_2" index="2" allow="private emergency authority army vip passenger hov taxi bus coach delivery truck trailer motorcycle evehicle custom1 custom2" speed="29.06" length="3.10" shape="2382.44,7103.86 2379.48,7103.08"/>
        <lane id=":1377536917_2_3" index="3" allow="private emergency authority army vip passenger hov taxi bus coach delivery truck trailer motorcycle evehicle custom1 custom2" speed="29.06" length="3.10" shape="2383.24,7100.76 2380.37,7100.00"/>
    </edge>
    <edge id=":1377536919_0" function="internal">
        <lane id=":1377536919_0_0" index="0" allow="private emergency authority army vip passenger hov taxi bus coach delivery truck trailer motorcycle evehicle custom1 custom2" speed="29.06" length="8.81" shape="990.33,7200.88 987.82,7201.10 986.04,7200.48 984.25,7199.87 981.75,7200.09"/>
        <lane id=":1377536919_0_1" index="1" allow="private emergency authority army vip passenger hov taxi bus coach delivery truck trailer motorcycle evehicle custom1 custom2" speed="29.06" length="8.81" shape="989.41,7197.81 986.91,7198.03 985.12,7197.42 983.33,7196.80 980.83,7197.03"/>
        <lane id=":1377536919_0_2" index="2" allow="private emergency authority army vip passenger hov taxi bus coach delivery truck trailer motorcycle evehicle custom1 custom2" speed="29.06" length="8.81" shape="988.50,7194.74 986.00,7194.97 984.21,7194.35 982.42,7193.74 979.92,7193.96"/>
        <lane id=":1377536919_0_3" index="3" allow="private emergency authority army vip passenger hov taxi bus coach delivery truck trailer motorcycle evehicle custom1 custom2" speed="29.06" length="8.81" shape="987.59,7191.68 985.09,7191.90 983.30,7191.28 981.51,7190.67 979.00,7190.89"/>
    </edge>
    <edge id=":1377536922_0" function="internal">
        <lane id=":1377536922_0_0" index="0" allow="private emergency authority army vip passenger hov taxi bus coach delivery truck trailer motorcycle evehicle custom1 custom2" speed="29.06" length="8.21" shape="538.42,7222.69 536.03,7222.96 534.44,7223.53 532.85,7224.10 530.46,7224.39"/>
        <lane id=":1377536922_0_1" index="1" allow="private emergency authority army vip passenger hov taxi bus coach delivery truck trailer motorcycle evehicle custom1 custom2" speed="29.06" length="8.21" shape="538.39,7219.49 536.00,7219.76 534.40,7220.33 532.81,7220.90 530.42,7221.19"/>
        <lane id=":1377536922_0_2" index="2" allow="private emergency authority army vip passenger hov taxi bus coach delivery truck trailer motorcycle evehicle custom1 custom2" speed="29.06" length="8.21" shape="538.35,7216.29 535.96,7216.56 534.36,7217.13 532.77,7217.70 530.37,7217.99"/>
        <lane id=":1377536922_0_3" index="3" allow="private emergency authority army vip passenger hov taxi bus coach delivery truck trailer motorcycle evehicle custom1 custom2" speed="29.06" length="8.21" shape="538.32,7213.09 535.92,7213.36 534.32,7213.93 532.72,7214.50 530.33,7214.79"/>
        <lane id=":1377536922_0_4" index="4" allow="private emergency authority army vip passenger hov taxi bus coach delivery truck trailer motorcycle evehicle custom1 custom2" speed="29.06" length="8.21" shape="538.32,7213.09 535.91,7212.86 534.30,7212.33 532.69,7211.80 530.28,7211.59"/>
    </edge>
    <edge id=":138307362-AddedOnRampNode_0" function="internal">
        <lane id=":138307362-AddedOnRampNode_0_0" index="0" allow="private emergency authority army vip passenger hov taxi bus coach delivery truck trailer motorcycle evehicle custom1 custom2" speed="29.06" length="8.09" width="6.20" shape="4414.21,1563.12 4414.50,1565.51 4415.06,1567.10 4415.62,1568.69 4415.91,1571.08"/>
        <lane id=":138307362-AddedOnRampNode_0_1" index="1" allow="private emergency authority army vip passenger hov taxi bus coach delivery truck trailer motorcycle evehicle custom1 custom2" speed="29.06" length="8.09" width="3.70" shape="4410.51,1563.22 4410.96,1571.21"/>
    </edge>
    <edge id=":13890125_0" function="internal">
        <lane id=":13890125_0_0" index="0" allow="private emergency authority army vip passenger hov taxi bus coach delivery truck trailer motorcycle evehicle custom1 custom2" speed="25.64" length="3.18" shape="2727.84,7206.65 2724.78,7205.80"/>
    </edge>
    <edge id=":13890125_1" function="internal">
        <lane id=":13890125_1_0" index="0" allow="private emergency authority army vip passenger hov taxi bus coach delivery truck trailer motorcycle evehicle custom1 custom2" speed="29.06" length="2.96" shape="2728.62,7203.49 2725.62,7202.71"/>
        <lane id=":13890125_1_1" index="1" allow="private emergency authority army vip passenger hov taxi bus coach delivery truck trailer motorcycle evehicle custom1 custom2" speed="29.06" length="2.96" shape="2729.39,7200.38 2726.46,7199.63"/>
        <lane id=":13890125_1_2" index="2" allow="private emergency authority army vip passenger hov taxi bus coach delivery truck trailer motorcycle evehicle custom1 custom2" speed="29.06" length="2.96" shape="2730.16,7197.28 2727.30,7196.54"/>
        <lane id=":13890125_1_3" index="3" allow="private emergency authority army vip passenger hov taxi bus coach delivery truck trailer motorcycle evehicle custom1 custom2" speed="29.06" length="2.96" shape="2730.93,7194.17 2728.14,7193.45"/>
        <lane id=":13890125_1_4" index="4" allow="private emergency authority army vip passenger hov taxi bus coach delivery truck trailer motorcycle evehicle custom1 custom2" speed="29.06" length="2.96" shape="2731.70,7191.07 2728.98,7190.36"/>
    </edge>
    <edge id=":13890126_0" function="internal">
        <lane id=":13890126_0_0" index="0" allow="private emergency authority army vip passenger hov taxi bus coach delivery truck trailer motorcycle evehicle custom1 custom2" speed="25.64" length="3.14" shape="4711.49,7293.74 4708.34,7293.64"/>
    </edge>
    <edge id=":13890126_1" function="internal">
        <lane id=":13890126_1_0" index="0" allow="private emergency authority army vip passenger hov taxi bus coach delivery truck trailer motorcycle evehicle custom1 custom2" speed="34.25" length="2.99" shape="4711.42,7290.40 4708.33,7290.44"/>
        <lane id=":13890126_1_1" index="1" allow="private emergency authority army vip passenger hov taxi bus coach delivery truck trailer motorcycle evehicle custom1 custom2" speed="34.25" length="2.99" shape="4711.35,7287.20 4708.31,7287.24"/>
        <lane id=":13890126_1_2" index="2" allow="private emergency authority army vip passenger hov taxi bus coach delivery truck trailer motorcycle evehicle custom1 custom2" speed="34.25" length="2.99" shape="4711.29,7284.00 4708.30,7284.04"/>
        <lane id=":13890126_1_3" index="3" allow="private emergency authority army vip passenger hov taxi bus coach delivery truck trailer motorcycle evehicle custom1 custom2" speed="34.25" length="2.99" shape="4711.22,7280.80 4708.28,7280.84"/>
        <lane id=":13890126_1_4" index="4" allow="private emergency authority army vip passenger hov taxi bus coach delivery truck trailer motorcycle evehicle custom1 custom2" speed="34.25" length="2.99" shape="4711.16,7277.60 4708.26,7277.64"/>
    </edge>
    <edge id=":156415539#1-AddedOnRampNode_0" function="internal">
        <lane id=":156415539#1-AddedOnRampNode_0_0" index="0" allow="private emergency authority army vip passenger hov taxi bus coach delivery truck trailer motorcycle evehicle custom1 custom2" speed="29.06" length="8.00" shape="5385.45,7064.82 5391.63,7059.74"/>
        <lane id=":156415539#1-AddedOnRampNode_0_1" index="1" allow="private emergency authority army vip passenger hov taxi bus coach delivery truck trailer motorcycle evehicle custom1 custom2" speed="29.06" length="8.00" shape="5387.49,7067.29 5393.66,7062.21"/>
        <lane id=":156415539#1-AddedOnRampNode_0_2" index="2" allow="private emergency authority army vip passenger hov taxi bus coach delivery truck trailer motorcycle evehicle custom1 custom2" speed="29.06" length="8.00" shape="5389.52,7069.76 5395.70,7064.68"/>
        <lane id=":156415539#1-AddedOnRampNode_0_3" index="3" allow="private emergency authority army vip passenger hov taxi bus coach delivery truck trailer motorcycle evehicle custom1 custom2" speed="29.06" length="8.00" shape="5391.55,7072.24 5397.73,7067.15"/>
        <lane id=":156415539#1-AddedOnRampNode_0_4" index="4" allow="private emergency authority army vip passenger hov taxi bus coach delivery truck trailer motorcycle evehicle custom1 custom2" speed="29.06" length="8.00" shape="5393.58,7074.71 5399.76,7069.63"/>
    </edge>
    <edge id=":156415539#2-AddedOnRampNode_0" function="internal">
        <lane id=":156415539#2-AddedOnRampNode_0_0" index="0" allow="private emergency authority army vip passenger hov taxi bus coach delivery truck trailer motorcycle evehicle custom1 custom2" speed="29.06" length="8.00" shape="5614.85,6859.25 5620.80,6853.91"/>
        <lane id=":156415539#2-AddedOnRampNode_0_1" index="1" allow="private emergency authority army vip passenger hov taxi bus coach delivery truck trailer motorcycle evehicle custom1 custom2" speed="29.06" length="8.00" shape="5616.98,6861.63 5622.94,6856.29"/>
        <lane id=":156415539#2-AddedOnRampNode_0_2" index="2" allow="private emergency authority army vip passenger hov taxi bus coach delivery truck trailer motorcycle evehicle custom1 custom2" speed="29.06" length="8.00" shape="5619.12,6864.01 5625.08,6858.67"/>
        <lane id=":156415539#2-AddedOnRampNode_0_3" index="3" allow="private emergency authority army vip passenger hov taxi bus coach delivery truck trailer motorcycle evehicle custom1 custom2" speed="29.06" length="8.00" shape="5621.26,6866.39 5627.21,6861.05"/>