<?xml version="1.0" encoding="UTF-8"?>

<!-- generated on 2024-05-03 15:46:54 by Eclipse SUMO netedit Version 1.19.0
<configuration xmlns:xsi="http://www.w3.org/2001/XMLSchema-instance" xsi:noNamespaceSchemaLocation="http://sumo.dlr.de/xsd/neteditConfiguration.xsd">

    <input>
        <sumo-net-file value="D:\Research_Projects\SUMO_TrafficNetwork\Network_Files\demo_network_with_mihir.net.xml"/>
    </input>

    <output>
        <output-file value="D:\Research_Projects\SUMO_TrafficNetwork\Network_Files\demo_network_with_mihir.net.xml"/>
    </output>

    <processing>
        <offset.disable-normalization value="true"/>
    </processing>

    <junctions>
        <no-turnarounds value="true"/>
    </junctions>

    <netedit>
        <new-network value="false"/>
    </netedit>

</configuration>
-->

<net version="1.16" junctionCornerDetail="5" limitTurnSpeed="5.50" xmlns:xsi="http://www.w3.org/2001/XMLSchema-instance" xsi:noNamespaceSchemaLocation="http://sumo.dlr.de/xsd/net_file.xsd">

    <location netOffset="0.00,0.00" convBoundary="-39.01,-194.38,2227.03,966.74" origBoundary="10000000000.00,10000000000.00,-10000000000.00,-10000000000.00" projParameter="!"/>

    <edge id=":J18_0" function="internal">
        <lane id=":J18_0_0" index="0" speed="12.64" length="33.27" shape="93.42,99.28 88.58,91.75 87.02,84.24 88.75,76.77 93.76,69.32"/>
    </edge>
    <edge id=":J18_1" function="internal">
        <lane id=":J18_1_0" index="0" speed="9.87" length="34.26" shape="93.42,99.28 87.67,90.51 85.40,82.01 87.63,75.60 95.43,73.12"/>
        <lane id=":J18_1_1" index="1" speed="9.28" length="30.10" shape="93.42,99.28 88.41,91.58 86.48,84.12 88.52,78.49 95.41,76.32"/>
        <lane id=":J18_1_2" index="2" speed="8.65" length="25.94" shape="93.42,99.28 89.14,92.65 87.56,86.23 89.41,81.39 95.38,79.52"/>
        <lane id=":J18_1_3" index="3" speed="7.97" length="21.79" shape="93.42,99.28 89.87,93.72 88.65,88.33 90.29,84.28 95.35,82.72"/>
    </edge>
    <edge id=":J20_0" function="internal">
        <lane id=":J20_0_0" index="0" speed="12.05" length="36.02" shape="177.12,163.28 169.10,169.92 161.88,171.83 154.79,169.11 147.14,161.85"/>
    </edge>
    <edge id=":J20_1" function="internal">
        <lane id=":J20_1_0" index="0" speed="9.72" length="34.81" shape="177.12,163.28 168.75,169.36 160.21,171.32 153.57,168.56 150.94,160.46"/>
        <lane id=":J20_1_1" index="1" speed="9.15" length="30.61" shape="177.12,163.28 169.77,168.57 162.27,170.19 156.45,167.65 154.14,160.48"/>
        <lane id=":J20_1_2" index="2" speed="8.53" length="26.42" shape="177.12,163.28 170.78,167.79 164.33,169.06 159.32,166.74 157.34,160.50"/>
        <lane id=":J20_1_3" index="3" speed="7.87" length="22.24" shape="177.12,163.28 171.80,167.01 166.39,167.93 162.20,165.84 160.54,160.52"/>
    </edge>
    <edge id=":J21_0" function="internal">
        <lane id=":J21_0_0" index="0" speed="11.92" length="34.93" shape="148.05,8.64 155.57,2.28 163.08,0.01 170.57,1.83 178.04,7.73"/>
    </edge>
    <edge id=":J21_1" function="internal">
        <lane id=":J21_1_0" index="0" speed="9.65" length="34.79" shape="148.05,8.64 156.26,2.26 164.82,-0.10 171.55,2.31 174.24,10.24"/>
        <lane id=":J21_1_1" index="1" speed="9.08" length="30.56" shape="148.05,8.64 155.25,3.07 162.77,1.05 168.68,3.23 171.04,10.22"/>
        <lane id=":J21_1_2" index="2" speed="8.46" length="26.33" shape="148.05,8.64 154.25,3.87 160.73,2.21 165.81,4.15 167.84,10.20"/>
        <lane id=":J21_1_3" index="3" speed="7.80" length="22.10" shape="148.05,8.64 153.25,4.67 158.68,3.36 162.94,5.07 164.64,10.18"/>
    </edge>
    <edge id=":J25_0" function="internal">
        <lane id=":J25_0_0" index="0" speed="6.92" length="10.08" shape="482.53,118.97 479.90,119.37 477.99,120.58 476.81,122.58 476.35,125.37"/>
    </edge>
    <edge id=":J25_1" function="internal">
        <lane id=":J25_1_0" index="0" speed="13.89" length="34.05" shape="482.53,118.97 448.48,119.07"/>
        <lane id=":J25_1_1" index="1" speed="13.89" length="34.05" shape="482.52,115.77 448.47,115.87"/>
        <lane id=":J25_1_2" index="2" speed="13.89" length="34.05" shape="482.51,112.57 448.46,112.67"/>
        <lane id=":J25_1_3" index="3" speed="13.89" length="34.05" shape="482.50,109.37 448.45,109.47"/>
    </edge>
    <edge id=":J25_5" function="internal">
        <lane id=":J25_5_0" index="0" speed="11.36" length="5.02" shape="482.50,109.37 477.53,108.67"/>
    </edge>
    <edge id=":J25_28" function="internal">
        <lane id=":J25_28_0" index="0" speed="11.36" length="24.68" shape="477.53,108.67 474.44,108.24 468.67,104.80 465.21,99.06 464.05,91.00"/>
    </edge>
    <edge id=":J25_6" function="internal">
        <lane id=":J25_6_0" index="0" speed="6.50" length="9.03" shape="476.85,90.98 477.20,93.43 478.25,95.18 480.01,96.22 482.46,96.57"/>
        <lane id=":J25_6_1" index="1" speed="8.00" length="14.20" shape="473.65,90.99 474.20,94.84 475.86,97.59 478.61,99.23 482.47,99.77"/>
    </edge>
    <edge id=":J25_8" function="internal">
        <lane id=":J25_8_0" index="0" speed="13.89" length="34.33" shape="473.65,90.99 476.35,125.37"/>
        <lane id=":J25_8_1" index="1" speed="13.89" length="34.33" shape="473.65,90.99 473.15,125.28"/>
        <lane id=":J25_8_2" index="2" speed="13.89" length="34.33" shape="470.45,90.99 469.95,125.18"/>
        <lane id=":J25_8_3" index="3" speed="13.89" length="34.33" shape="470.45,90.99 469.95,101.14 468.80,108.04 467.55,114.94 466.76,125.09"/>
    </edge>
    <edge id=":J25_12" function="internal">
        <lane id=":J25_12_0" index="0" speed="12.35" length="35.20" shape="470.45,90.99 469.08,100.45 464.97,107.22 458.09,111.29 448.46,112.67"/>
        <lane id=":J25_12_1" index="1" speed="11.44" length="30.05" shape="467.25,90.99 466.08,99.06 462.56,104.82 456.68,108.30 448.45,109.47"/>
    </edge>
    <edge id=":J25_14" function="internal">
        <lane id=":J25_14_0" index="0" speed="6.64" length="9.43" shape="448.41,96.67 451.06,96.31 452.94,95.25 454.07,93.48 454.45,91.01"/>
    </edge>
    <edge id=":J25_15" function="internal">
        <lane id=":J25_15_0" index="0" speed="13.89" length="34.05" shape="448.41,96.67 482.46,96.57"/>
        <lane id=":J25_15_1" index="1" speed="13.89" length="34.05" shape="448.42,99.87 482.47,99.77"/>
        <lane id=":J25_15_2" index="2" speed="13.89" length="34.05" shape="448.43,103.07 482.48,102.97"/>
        <lane id=":J25_15_3" index="3" speed="13.89" length="34.05" shape="448.44,106.27 482.49,106.17"/>
    </edge>
    <edge id=":J25_19" function="internal">
        <lane id=":J25_19_0" index="0" speed="11.32" length="4.99" shape="448.44,106.27 453.38,106.97"/>
    </edge>
    <edge id=":J25_29" function="internal">
        <lane id=":J25_29_0" index="0" speed="11.32" length="25.18" shape="453.38,106.97 456.66,107.43 462.46,110.95 465.82,116.84 466.76,125.09"/>
    </edge>
    <edge id=":J25_20" function="internal">
        <lane id=":J25_20_0" index="0" speed="6.44" length="9.03" shape="453.96,124.71 453.68,122.23 452.67,120.47 450.94,119.42 448.48,119.07"/>
        <lane id=":J25_20_1" index="1" speed="7.94" length="14.32" shape="457.16,124.80 456.72,120.88 455.12,118.09 452.37,116.42 448.47,115.87"/>
    </edge>
    <edge id=":J25_22" function="internal">
        <lane id=":J25_22_0" index="0" speed="13.89" length="33.94" shape="457.16,124.80 456.95,114.76 456.00,107.91 454.95,101.06 454.45,91.01"/>
        <lane id=":J25_22_1" index="1" speed="13.89" length="33.94" shape="457.16,124.80 457.65,91.01"/>
        <lane id=":J25_22_2" index="2" speed="13.89" length="33.94" shape="460.36,124.90 460.85,91.00"/>
        <lane id=":J25_22_3" index="3" speed="13.89" length="33.94" shape="460.36,124.90 464.05,91.00"/>
    </edge>
    <edge id=":J25_26" function="internal">
        <lane id=":J25_26_0" index="0" speed="12.51" length="35.27" shape="460.36,124.90 461.99,115.33 466.22,108.48 473.05,104.36 482.48,102.97"/>
        <lane id=":J25_26_1" index="1" speed="11.61" length="30.23" shape="463.56,124.99 464.95,116.78 468.57,110.90 474.42,107.37 482.49,106.17"/>
    </edge>
    <edge id=":J7_0" function="internal">
        <lane id=":J7_0_0" index="0" speed="10.55" length="10.40" shape="113.50,-41.77 115.26,-40.16 116.52,-38.99 117.93,-38.26 120.18,-37.99"/>
        <lane id=":J7_0_1" index="1" speed="11.89" length="10.40" shape="113.50,-41.77 115.44,-39.40 116.42,-37.16 117.60,-35.48 120.14,-34.79"/>
        <lane id=":J7_0_2" index="2" speed="13.41" length="10.40" shape="113.50,-41.77 115.32,-38.86 115.98,-35.52 117.06,-32.77 120.10,-31.59"/>
    </edge>
    <edge id=":J7_3" function="internal">
        <lane id=":J7_3_0" index="0" speed="13.89" length="8.00" shape="112.15,-37.99 120.18,-37.99"/>
        <lane id=":J7_3_1" index="1" speed="13.89" length="8.00" shape="112.13,-34.79 120.14,-34.79"/>
        <lane id=":J7_3_2" index="2" speed="13.89" length="8.00" shape="112.11,-31.59 120.10,-31.59"/>
        <lane id=":J7_3_3" index="3" speed="13.89" length="8.00" shape="112.09,-28.39 120.07,-28.39"/>
    </edge>
    <edge id=":J8_0" function="internal">
        <lane id=":J8_0_0" index="0" speed="13.89" length="14.43" shape="195.85,-37.14 200.30,-37.52 203.52,-38.62 206.24,-40.18 209.17,-41.95"/>
    </edge>
    <edge id=":J8_1" function="internal">
        <lane id=":J8_1_0" index="0" speed="13.89" length="14.57" shape="195.85,-37.14 210.41,-36.99"/>
        <lane id=":J8_1_1" index="1" speed="13.89" length="14.57" shape="195.81,-33.94 210.38,-33.79"/>
        <lane id=":J8_1_2" index="2" speed="13.89" length="14.57" shape="195.78,-30.74 210.34,-30.59"/>
        <lane id=":J8_1_3" index="3" speed="13.89" length="14.57" shape="195.74,-27.54 210.31,-27.39"/>
    </edge>

    <edge id="-E10" from="J19" to="J18" priority="-1">
        <lane id="-E10_0" index="0" speed="13.89" length="139.71" shape="234.95,96.72 95.24,95.52"/>
        <lane id="-E10_1" index="1" speed="13.89" length="139.71" shape="234.98,93.52 95.27,92.32"/>
        <lane id="-E10_2" index="2" speed="13.89" length="139.71" shape="235.01,90.32 95.30,89.12"/>
        <lane id="-E10_3" index="3" speed="13.89" length="139.71" shape="235.03,87.12 95.32,85.92"/>
    </edge>
    <edge id="-E11" from="J21" to="J20" priority="-1">
        <lane id="-E11_0" index="0" speed="13.89" length="150.36" shape="174.24,10.24 173.34,160.59"/>
        <lane id="-E11_1" index="1" speed="13.89" length="150.36" shape="171.04,10.22 170.14,160.57"/>
        <lane id="-E11_2" index="2" speed="13.89" length="150.36" shape="167.84,10.20 166.94,160.55"/>
        <lane id="-E11_3" index="3" speed="13.89" length="150.36" shape="164.64,10.18 163.74,160.53"/>
    </edge>
    <edge id="-E12" from="J23" to="J22" priority="-1">
        <lane id="-E12_0" index="0" speed="13.89" length="66.00" shape="298.20,150.13 232.21,150.55"/>
        <lane id="-E12_1" index="1" speed="13.89" length="66.00" shape="298.18,146.93 232.19,147.35"/>
        <lane id="-E12_2" index="2" speed="13.89" length="66.00" shape="298.16,143.73 232.17,144.15"/>
        <lane id="-E12_3" index="3" speed="13.89" length="66.00" shape="298.14,140.53 232.15,140.95"/>
    </edge>
    <edge id="-E13" from="J25" to="J24" priority="-1">
        <lane id="-E13_0" index="0" speed="13.89" length="98.67" shape="448.48,119.07 349.81,119.36"/>
        <lane id="-E13_1" index="1" speed="13.89" length="98.67" shape="448.47,115.87 349.80,116.16"/>
        <lane id="-E13_2" index="2" speed="13.89" length="98.67" shape="448.46,112.67 349.79,112.96"/>
        <lane id="-E13_3" index="3" speed="13.89" length="98.67" shape="448.45,109.47 349.78,109.76"/>
    </edge>
    <edge id="-E14" from="J26" to="J25" priority="-1">
        <lane id="-E14_0" index="0" speed="13.89" length="136.12" shape="618.65,118.51 482.53,118.97"/>
        <lane id="-E14_1" index="1" speed="13.89" length="136.12" shape="618.64,115.31 482.52,115.77"/>
        <lane id="-E14_2" index="2" speed="13.89" length="136.12" shape="618.63,112.11 482.51,112.57"/>
        <lane id="-E14_3" index="3" speed="13.89" length="136.12" shape="618.62,108.91 482.50,109.37"/>
    </edge>
    <edge id="-E15" from="J25" to="J27" priority="-1">
        <lane id="-E15_0" index="0" speed="13.89" length="90.42" shape="476.35,125.37 473.65,215.76"/>
        <lane id="-E15_1" index="1" speed="13.89" length="90.42" shape="473.15,125.28 470.45,215.66"/>
        <lane id="-E15_2" index="2" speed="13.89" length="90.42" shape="469.95,125.18 467.25,215.57"/>
        <lane id="-E15_3" index="3" speed="13.89" length="90.42" shape="466.76,125.09 464.06,215.47"/>
    </edge>
    <edge id="-E16" from="J28" to="J25" priority="-1">
        <lane id="-E16_0" index="0" speed="13.89" length="104.99" shape="476.70,-14.01 476.85,90.98"/>
        <lane id="-E16_1" index="1" speed="13.89" length="104.99" shape="473.50,-14.00 473.65,90.99"/>
        <lane id="-E16_2" index="2" speed="13.89" length="104.99" shape="470.30,-14.00 470.45,90.99"/>
        <lane id="-E16_3" index="3" speed="13.89" length="104.99" shape="467.10,-14.00 467.25,90.99"/>
    </edge>
    <edge id="E10" from="J18" to="J19" priority="-1">
        <lane id="E10_0" index="0" speed="13.89" length="139.71" shape="95.43,73.12 235.14,74.32"/>
        <lane id="E10_1" index="1" speed="13.89" length="139.71" shape="95.41,76.32 235.12,77.52"/>
        <lane id="E10_2" index="2" speed="13.89" length="139.71" shape="95.38,79.52 235.09,80.72"/>
        <lane id="E10_3" index="3" speed="13.89" length="139.71" shape="95.35,82.72 235.06,83.92"/>
    </edge>
    <edge id="E11" from="J20" to="J21" priority="-1">
        <lane id="E11_0" index="0" speed="13.89" length="150.36" shape="150.94,160.46 151.84,10.10"/>
        <lane id="E11_1" index="1" speed="13.89" length="150.36" shape="154.14,160.48 155.04,10.12"/>
        <lane id="E11_2" index="2" speed="13.89" length="150.36" shape="157.34,160.50 158.24,10.14"/>
        <lane id="E11_3" index="3" speed="13.89" length="150.36" shape="160.54,160.52 161.44,10.16"/>
    </edge>
    <edge id="E12" from="J22" to="J23" priority="-1">
        <lane id="E12_0" index="0" speed="13.89" length="66.00" shape="232.06,128.15 298.06,127.73"/>
        <lane id="E12_1" index="1" speed="13.89" length="66.00" shape="232.09,131.35 298.08,130.93"/>
        <lane id="E12_2" index="2" speed="13.89" length="66.00" shape="232.11,134.55 298.10,134.13"/>
        <lane id="E12_3" index="3" speed="13.89" length="66.00" shape="232.13,137.75 298.12,137.33"/>
    </edge>
    <edge id="E13" from="J24" to="J25" priority="-1">
        <lane id="E13_0" index="0" speed="13.89" length="98.67" shape="349.74,96.96 448.41,96.67"/>
        <lane id="E13_1" index="1" speed="13.89" length="98.67" shape="349.75,100.16 448.42,99.87"/>
        <lane id="E13_2" index="2" speed="13.89" length="98.67" shape="349.76,103.36 448.43,103.07"/>
        <lane id="E13_3" index="3" speed="13.89" length="98.67" shape="349.77,106.56 448.44,106.27"/>
    </edge>
    <edge id="E14" from="J25" to="J26" priority="-1">
        <lane id="E14_0" index="0" speed="13.89" length="136.12" shape="482.46,96.57 618.58,96.11"/>
        <lane id="E14_1" index="1" speed="13.89" length="136.12" shape="482.47,99.77 618.59,99.31"/>
        <lane id="E14_2" index="2" speed="13.89" length="136.12" shape="482.48,102.97 618.60,102.51"/>
        <lane id="E14_3" index="3" speed="13.89" length="136.12" shape="482.49,106.17 618.61,105.71"/>
    </edge>
    <edge id="E15" from="J27" to="J25" priority="-1">
        <lane id="E15_0" index="0" speed="13.89" length="90.42" shape="451.26,215.09 453.96,124.71"/>
        <lane id="E15_1" index="1" speed="13.89" length="90.42" shape="454.46,215.19 457.16,124.80"/>
        <lane id="E15_2" index="2" speed="13.89" length="90.42" shape="457.66,215.28 460.36,124.90"/>
        <lane id="E15_3" index="3" speed="13.89" length="90.42" shape="460.86,215.38 463.56,124.99"/>
    </edge>
    <edge id="E16" from="J25" to="J28" priority="-1">
        <lane id="E16_0" index="0" speed="13.89" length="104.99" shape="454.45,91.01 454.30,-13.98"/>
        <lane id="E16_1" index="1" speed="13.89" length="104.99" shape="457.65,91.01 457.50,-13.98"/>
        <lane id="E16_2" index="2" speed="13.89" length="104.99" shape="460.85,91.00 460.70,-13.99"/>
        <lane id="E16_3" index="3" speed="13.89" length="104.99" shape="464.05,91.00 463.90,-13.99"/>
    </edge>
    <edge id="E17" from="J19" to="J20" priority="-1">
        <lane id="E17_0" index="0" speed="13.89" length="86.52" shape="236.85,100.70 177.12,163.28"/>
    </edge>
    <edge id="E18" from="J21" to="J19" priority="-1">
        <lane id="E18_0" index="0" speed="13.89" length="85.93" shape="178.04,7.73 236.87,70.37"/>
    </edge>
    <edge id="E19" from="J20" to="J18" priority="-1">
        <lane id="E19_0" index="0" speed="13.89" length="82.47" shape="147.14,161.85 93.42,99.28"/>
    </edge>
    <edge id="E20" from="J18" to="J21" priority="-1">
        <lane id="E20_0" index="0" speed="13.89" length="81.42" shape="93.76,69.32 148.05,8.64"/>
    </edge>
    <edge id="E21" from="J19" to="J32" priority="-1">
        <lane id="E21_0" index="0" speed="13.89" length="72.88" shape="255.19,84.02 328.07,83.78"/>
    </edge>
    <edge id="E22" from="J33" to="J34" priority="-1">
        <lane id="E22_0" index="0" speed="13.89" length="526.27" shape="-26.85,408.68 499.41,409.13"/>
    </edge>
    <edge id="E23" from="J35" to="J36" priority="-1">
        <lane id="E23_0" index="0" speed="13.89" length="562.76" shape="-36.44,275.38 525.18,311.18"/>
    </edge>
    <edge id="E24" from="J37" to="J38" priority="-1">
        <lane id="E24_0" index="0" speed="13.89" length="584.47" shape="-38.87,149.27 543.24,201.74"/>
    </edge>
    <edge id="E25" from="J39" to="J40" priority="-1">
        <lane id="E25_0" index="0" speed="13.89" length="395.71" shape="91.22,453.07 42.95,60.32"/>
    </edge>
    <edge id="E26" from="J41" to="J42" priority="-1">
        <lane id="E26_0" index="0" speed="13.89" length="474.53" shape="215.47,521.30 357.22,68.42"/>
    </edge>
    <edge id="E27" from="J43" to="J44" priority="-1">
        <lane id="E27_0" index="0" speed="13.89" length="503.71" shape="484.85,514.96 419.03,15.57"/>
    </edge>
    <edge id="E28" from="J45" to="J46" priority="-1">
        <lane id="E28_0" index="0" speed="13.89" length="478.38" shape="19.14,480.00 -27.67,3.92"/>
    </edge>
    <edge id="E29" from="J47" to="J48" priority="-1">
        <lane id="E29_0" index="0" speed="13.89" length="19.18" shape="268.33,374.62 265.75,355.62"/>
    </edge>
    <edge id="E3" from="J6" to="J7" priority="-1">
        <lane id="E3_0" index="0" speed="13.89" length="27.57" shape="84.58,-38.15 112.15,-37.99"/>
        <lane id="E3_1" index="1" speed="13.89" length="27.57" shape="84.56,-34.95 112.13,-34.79"/>
        <lane id="E3_2" index="2" speed="13.89" length="27.57" shape="84.55,-31.75 112.11,-31.59"/>
        <lane id="E3_3" index="3" speed="13.89" length="27.57" shape="84.53,-28.55 112.09,-28.39"/>
    </edge>
    <edge id="E30" from="J49" to="J50" priority="-1">
        <lane id="E30_0" index="0" speed="13.89" length="32.30" shape="297.82,319.52 272.13,339.10"/>
    </edge>
    <edge id="E31" from="J51" to="J52" priority="-1">
        <lane id="E31_0" index="0" speed="13.89" length="42.49" shape="138.88,285.50 116.36,249.47"/>
    </edge>
    <edge id="E32" from="J53" to="J54" priority="-1">
        <lane id="E32_0" index="0" speed="13.89" length="34.47" shape="200.96,288.19 226.14,264.65"/>
    </edge>
    <edge id="E33" from="J55" to="J56" priority="-1">
        <lane id="E33_0" index="0" speed="13.89" length="48.83" shape="343.85,409.02 303.32,381.79"/>
    </edge>
    <edge id="E34" from="J57" to="J58" priority="-1">
        <lane id="E34_0" index="0" speed="13.89" length="31.32" shape="407.79,407.34 434.61,391.17"/>
    </edge>
    <edge id="E35" from="J59" to="J60" priority="-1">
        <lane id="E35_0" index="0" speed="13.89" length="404.09" shape="158.66,480.87 562.54,493.73"/>
    </edge>
    <edge id="E36" from="J61" to="J62" priority="-1">
        <lane id="E36_0" index="0" speed="13.89" length="1196.49" shape="784.94,529.79 1981.38,541.45"/>
    </edge>
    <edge id="E37" from="J63" to="J64" priority="-1">
        <lane id="E37_0" index="0" speed="13.89" length="1369.31" shape="788.93,120.09 2154.84,216.49"/>
    </edge>
    <edge id="E38" from="J65" to="J66" priority="-1">
        <lane id="E38_0" index="0" speed="13.89" length="1450.40" shape="780.38,289.57 2227.14,392.19"/>
    </edge>
    <edge id="E39" from="J67" to="J68" priority="-1">
        <lane id="E39_0" index="0" speed="13.89" length="1476.75" shape="616.01,889.74 2078.32,683.73"/>
    </edge>
    <edge id="E4" from="J7" to="J8" priority="-1">
        <lane id="E4_0" index="0" speed="13.89" length="75.68" shape="120.18,-37.99 195.85,-37.14"/>
        <lane id="E4_1" index="1" speed="13.89" length="75.68" shape="120.14,-34.79 195.81,-33.94"/>
        <lane id="E4_2" index="2" speed="13.89" length="75.68" shape="120.10,-31.59 195.78,-30.74"/>
        <lane id="E4_3" index="3" speed="13.89" length="75.68" shape="120.07,-28.39 195.74,-27.54"/>
    </edge>
    <edge id="E40" from="J69" to="J70" priority="-1">
        <lane id="E40_0" index="0" speed="13.89" length="1103.27" shape="1278.55,926.49 1153.39,-169.66"/>
    </edge>
    <edge id="E41" from="J71" to="J72" priority="-1">
        <lane id="E41_0" index="0" speed="13.89" length="1024.40" shape="857.18,966.68 890.61,-57.17"/>
    </edge>
    <edge id="E42" from="J73" to="J74" priority="-1">
        <lane id="E42_0" index="0" speed="13.89" length="997.53" shape="1675.82,935.38 1838.30,-48.82"/>
    </edge>
    <edge id="E43" from="J75" to="J76" priority="-1">
        <lane id="E43_0" index="0" speed="13.89" length="1087.12" shape="1933.91,888.00 2083.95,-188.72"/>
    </edge>
    <edge id="E44" from="J77" to="J78" priority="-1">
        <lane id="E44_0" index="0" speed="13.89" length="1085.77" shape="1483.25,890.40 1435.45,-194.31"/>
    </edge>
    <edge id="E5" from="J8" to="J9" priority="-1">
        <lane id="E5_0" index="0" speed="13.89" length="37.83" shape="210.41,-36.99 248.24,-36.58"/>
        <lane id="E5_1" index="1" speed="13.89" length="37.83" shape="210.38,-33.79 248.21,-33.38"/>
        <lane id="E5_2" index="2" speed="13.89" length="37.83" shape="210.34,-30.59 248.17,-30.18"/>
        <lane id="E5_3" index="3" speed="13.89" length="37.83" shape="210.31,-27.39 248.14,-26.98"/>
    </edge>
    <edge id="E6" from="J12" to="J7" priority="-1">
        <lane id="E6_0" index="0" speed="13.89" length="31.07" shape="89.38,-61.36 113.50,-41.77"/>
    </edge>
    <edge id="E7" from="J8" to="J13" priority="-1">
        <lane id="E7_0" index="0" speed="13.89" length="33.97" shape="209.17,-41.95 238.98,-58.23"/>
    </edge>

    <junction id="J12" type="dead_end" x="88.38" y="-60.12" incLanes="" intLanes="" shape="88.38,-60.12 90.39,-62.60"/>
    <junction id="J13" type="dead_end" x="239.75" y="-56.83" incLanes="E7_0" intLanes="" shape="238.22,-59.64 239.75,-56.83"/>
    <junction id="J18" type="priority" x="82.58" y="84.21" incLanes="E19_0 -E10_0 -E10_1 -E10_2 -E10_3" intLanes=":J18_0_0 :J18_1_0 :J18_1_1 :J18_1_2 :J18_1_3" shape="92.20,100.33 94.63,98.24 94.26,97.61 94.29,97.39 94.46,97.24 94.77,97.14 95.23,97.12 95.45,71.52 94.73,71.39 94.57,71.23 94.56,71.01 94.68,70.73 94.95,70.39 92.56,68.25 88.60,73.56 86.20,78.89 85.35,84.23 86.07,89.58 88.36,94.95">
        <request index="0" response="00000" foes="00000" cont="0"/>
        <request index="1" response="00000" foes="00000" cont="0"/>
        <request index="2" response="00000" foes="00000" cont="0"/>
        <request index="3" response="00000" foes="00000" cont="0"/>
        <request index="4" response="00000" foes="00000" cont="0"/>
    </junction>
    <junction id="J19" type="dead_end" x="249.02" y="85.64" incLanes="E18_0 E10_0 E10_1 E10_2 E10_3" intLanes="" shape="255.19,85.62 255.18,82.42 251.15,80.97 248.50,79.14 245.44,76.59 241.95,73.30 238.04,69.28 235.71,71.47 236.17,72.17 236.16,72.41 235.99,72.59 235.66,72.69 235.16,72.72 234.94,98.32 235.89,98.47 236.11,98.65 236.14,98.89 236.01,99.21 235.70,99.59 238.01,101.80 242.78,96.86 246.78,92.82 250.03,89.67 252.51,87.42 254.23,86.07"/>
    <junction id="J20" type="priority" x="162.04" y="176.75" incLanes="E17_0 -E11_0 -E11_1 -E11_2 -E11_3" intLanes=":J20_0_0 :J20_1_0 :J20_1_1 :J20_1_2 :J20_1_3" shape="178.27,164.38 175.96,162.17 175.38,162.48 175.19,162.32 175.04,161.96 174.96,161.38 174.94,160.60 149.34,160.45 149.22,161.16 149.09,161.29 148.90,161.28 148.65,161.12 148.35,160.81 145.92,162.89 151.27,168.11 156.63,171.34 162.01,172.58 167.41,171.83 172.83,169.10">
        <request index="0" response="00000" foes="00000" cont="0"/>
        <request index="1" response="00000" foes="00000" cont="0"/>
        <request index="2" response="00000" foes="00000" cont="0"/>
        <request index="3" response="00000" foes="00000" cont="0"/>
        <request index="4" response="00000" foes="00000" cont="0"/>
    </junction>
    <junction id="J21" type="priority" x="163.13" y="-5.81" incLanes="E20_0 E11_0 E11_1 E11_2 E11_3" intLanes=":J21_0_0 :J21_1_0 :J21_1_1 :J21_1_2 :J21_1_3" shape="176.88,8.83 179.21,6.64 173.83,1.89 168.44,-0.89 163.05,-1.72 157.66,-0.58 152.26,2.52 146.86,7.58 149.24,9.71 149.80,9.26 149.99,9.25 150.13,9.38 150.21,9.67 150.24,10.09 175.84,10.25 175.96,8.97 176.10,8.64 176.31,8.50 176.56,8.57">
        <request index="0" response="00000" foes="00000" cont="0"/>
        <request index="1" response="00000" foes="00000" cont="0"/>
        <request index="2" response="00000" foes="00000" cont="0"/>
        <request index="3" response="00000" foes="00000" cont="0"/>
        <request index="4" response="00000" foes="00000" cont="0"/>
    </junction>
    <junction id="J22" type="dead_end" x="232.14" y="139.35" incLanes="-E12_0 -E12_1 -E12_2 -E12_3" intLanes="" shape="232.14,139.35 232.22,152.15 232.14,139.35"/>
    <junction id="J23" type="dead_end" x="298.13" y="138.93" incLanes="E12_0 E12_1 E12_2 E12_3" intLanes="" shape="298.13,138.93 298.05,126.13 298.13,138.93"/>
    <junction id="J24" type="dead_end" x="349.78" y="108.16" incLanes="-E13_0 -E13_1 -E13_2 -E13_3" intLanes="" shape="349.78,108.16 349.81,120.96 349.78,108.16"/>
    <junction id="J25" type="priority" x="465.67" y="107.82" incLanes="-E14_0 -E14_1 -E14_2 -E14_3 -E16_0 -E16_1 -E16_2 -E16_3 E13_0 E13_1 E13_2 E13_3 E15_0 E15_1 E15_2 E15_3" intLanes=":J25_0_0 :J25_1_0 :J25_1_1 :J25_1_2 :J25_1_3 :J25_28_0 :J25_6_0 :J25_6_1 :J25_8_0 :J25_8_1 :J25_8_2 :J25_8_3 :J25_12_0 :J25_12_1 :J25_14_0 :J25_15_0 :J25_15_1 :J25_15_2 :J25_15_3 :J25_29_0 :J25_20_0 :J25_20_1 :J25_22_0 :J25_22_1 :J25_22_2 :J25_22_3 :J25_26_0 :J25_26_1" shape="482.54,120.57 482.45,94.97 480.23,94.53 479.45,93.98 478.89,93.20 478.56,92.20 478.45,90.98 452.85,91.01 452.36,93.26 451.74,94.05 450.88,94.62 449.77,94.96 448.41,95.07 448.48,120.67 450.69,121.11 451.45,121.66 451.98,122.44 452.29,123.44 452.36,124.66 477.95,125.42 478.52,122.73 479.17,121.79 480.05,121.11 481.18,120.70">
        <request index="0"  response="0000000000000000000000000000" foes="0000000000000000111100000000" cont="0"/>
        <request index="1"  response="0000000000000000000000000000" foes="1111111110000011111100000000" cont="0"/>
        <request index="2"  response="0000000000000000000000000000" foes="1111111110000011111100000000" cont="0"/>
        <request index="3"  response="0000000000000000000000000000" foes="1111111110000011111100000000" cont="0"/>
        <request index="4"  response="0000000000000000000000000000" foes="1111111110000011111100000000" cont="0"/>
        <request index="5"  response="0000000001111000000000000000" foes="1111110001111011111100000000" cont="1"/>
        <request index="6"  response="0000000001111000000000000000" foes="0000000001111000000000000000" cont="0"/>
        <request index="7"  response="0000000001111000000000000000" foes="0000000001111000000000000000" cont="0"/>
        <request index="8"  response="0000000011111000000000111111" foes="1100000011111000000000111111" cont="0"/>
        <request index="9"  response="0000000011111000000000111111" foes="1100000011111000000000111111" cont="0"/>
        <request index="10" response="0000000011111000000000111111" foes="1100000011111000000000111111" cont="0"/>
        <request index="11" response="0000000011111000000000111111" foes="1100000011111000000000111111" cont="0"/>
        <request index="12" response="0111110011111000000000111110" foes="0111110011111000000000111110" cont="0"/>
        <request index="13" response="0011110011111000000000111110" foes="0011110011111000000000111110" cont="0"/>
        <request index="14" response="0000000000000000000000000000" foes="0011110000000000000000000000" cont="0"/>
        <request index="15" response="0000000000000000000000000000" foes="1111110000000011111111100000" cont="0"/>
        <request index="16" response="0000000000000000000000000000" foes="1111110000000011111111100000" cont="0"/>
        <request index="17" response="0000000000000000000000000000" foes="1111110000000011111111100000" cont="0"/>
        <request index="18" response="0000000000000000000000000000" foes="1111110000000011111111100000" cont="0"/>
        <request index="19" response="0000000000000000000000011110" foes="1111110000000011111100011110" cont="1"/>
        <request index="20" response="0000000000000000000000011110" foes="0000000000000000000000011110" cont="0"/>
        <request index="21" response="0000000000000000000000011110" foes="0000000000000000000000011110" cont="0"/>
        <request index="22" response="0000000011111100000000111110" foes="0000000011111111000000111110" cont="0"/>
        <request index="23" response="0000000011111100000000111110" foes="0000000011111111000000111110" cont="0"/>
        <request index="24" response="0000000011111100000000111110" foes="0000000011111111000000111110" cont="0"/>