<?xml version="1.0" encoding="UTF-8"?>

<!-- generated on 2024-05-24 11:24:25 by Eclipse SUMO duarouter Version 1.19.0
<configuration xmlns:xsi="http://www.w3.org/2001/XMLSchema-instance" xsi:noNamespaceSchemaLocation="http://sumo.dlr.de/xsd/duarouterConfiguration.xsd">

    <input>
        <net-file value="Network_Files\Traffic_Net.net.xml"/>
        <route-files value="Network_Files\Traffic_Net_Flow.rou.xml"/>
        <junction-taz value="true"/>
    </input>

    <output>
        <output-file value="Network_Files\Traffic_Net_Flow_2.rou.xml"/>
    </output>

    <time>
        <end value="3600"/>
    </time>

</configuration>
-->

<routes xmlns:xsi="http://www.w3.org/2001/XMLSchema-instance" xsi:noNamespaceSchemaLocation="http://sumo.dlr.de/xsd/routes_file.xsd">
    <vehicle id="f_0.0" depart="0.00">
        <route edges="E89 E68 E11 E11.291 E11.459 E14 E16 E18 E2 E2.343 E2.599 E13 E21"/>
    </vehicle>
    <vehicle id="f_1.0" depart="0.00">
        <route edges="E54 E71.845 E71.1189 E71.1189.1353 E71.1189.1656 E94 E103 E99 E37 E37.815 E37.1085 E47 E49 E48 E21"/>
    </vehicle>
    <vehicle id="f_0.1" depart="2.00">
        <route edges="E89 E68 E11 E11.291 E11.459 E14 E16 E18 E2 E2.343 E2.599 E13 E21"/>
    </vehicle>
    <vehicle id="f_0.2" depart="4.00">
        <route edges="E89 E68 E11 E11.291 E11.459 E14 E16 E18 E2 E2.343 E2.599 E13 E21"/>
    </vehicle>
    <vehicle id="f_1.1" depart="4.50">
        <route edges="E54 E71.845 E71.1189 E71.1189.1353 E71.1189.1656 E94 E103 E99 E37 E37.815 E37.1085 E47 E49 E48 E21"/>
    </vehicle>
    <vehicle id="f_0.3" depart="6.00">
        <route edges="E89 E68 E11 E11.291 E11.459 E14 E16 E18 E2 E2.343 E2.599 E13 E21"/>
    </vehicle>
    <vehicle id="f_0.4" depart="8.00">
        <route edges="E89 E68 E11 E11.291 E11.459 E14 E16 E18 E2 E2.343 E2.599 E13 E21"/>
    </vehicle>
    <vehicle id="f_1.2" depart="9.00">
        <route edges="E54 E71.845 E71.1189 E71.1189.1353 E71.1189.1656 E94 E103 E99 E37 E37.815 E37.1085 E47 E49 E48 E21"/>
    </vehicle>
    <vehicle id="f_0.5" depart="10.00">
        <route edges="E89 E68 E11 E11.291 E11.459 E14 E16 E18 E2 E2.343 E2.599 E13 E21"/>
    </vehicle>
    <vehicle id="f_0.6" depart="12.00">
        <route edges="E89 E68 E11 E11.291 E11.459 E14 E16 E18 E2 E2.343 E2.599 E13 E21"/>
    </vehicle>
    <vehicle id="f_1.3" depart="13.50">
        <route edges="E54 E71.845 E71.1189 E71.1189.1353 E71.1189.1656 E94 E103 E99 E37 E37.815 E37.1085 E47 E49 E48 E21"/>
    </vehicle>
    <vehicle id="f_0.7" depart="14.00">
        <route edges="E89 E68 E11 E11.291 E11.459 E14 E16 E18 E2 E2.343 E2.599 E13 E21"/>
    </vehicle>
    <vehicle id="f_0.8" depart="16.00">
        <route edges="E89 E68 E11 E11.291 E11.459 E14 E16 E18 E2 E2.343 E2.599 E13 E21"/>
    </vehicle>
    <vehicle id="f_0.9" depart="18.00">
        <route edges="E89 E68 E11 E11.291 E11.459 E14 E16 E18 E2 E2.343 E2.599 E13 E21"/>
    </vehicle>
    <vehicle id="f_1.4" depart="18.00">
        <route edges="E54 E71.845 E71.1189 E71.1189.1353 E71.1189.1656 E94 E103 E99 E37 E37.815 E37.1085 E47 E49 E48 E21"/>
    </vehicle>
    <vehicle id="f_0.10" depart="20.00">
        <route edges="E89 E68 E11 E11.291 E11.459 E14 E16 E18 E2 E2.343 E2.599 E13 E21"/>
    </vehicle>
    <vehicle id="f_0.11" depart="22.00">
        <route edges="E89 E68 E11 E11.291 E11.459 E14 E16 E18 E2 E2.343 E2.599 E13 E21"/>
    </vehicle>
    <vehicle id="f_1.5" depart="22.50">
        <route edges="E54 E71.845 E71.1189 E71.1189.1353 E71.1189.1656 E94 E103 E99 E37 E37.815 E37.1085 E47 E49 E48 E21"/>
    </vehicle>
    <vehicle id="f_0.12" depart="24.00">
        <route edges="E89 E68 E11 E11.291 E11.459 E14 E16 E18 E2 E2.343 E2.599 E13 E21"/>
    </vehicle>
    <vehicle id="f_0.13" depart="26.00">
        <route edges="E89 E68 E11 E11.291 E11.459 E14 E16 E18 E2 E2.343 E2.599 E13 E21"/>
    </vehicle>
    <vehicle id="f_1.6" depart="27.00">
        <route edges="E54 E71.845 E71.1189 E71.1189.1353 E71.1189.1656 E94 E103 E99 E37 E37.815 E37.1085 E47 E49 E48 E21"/>
    </vehicle>
    <vehicle id="f_0.14" depart="28.00">
        <route edges="E89 E68 E11 E11.291 E11.459 E14 E16 E18 E2 E2.343 E2.599 E13 E21"/>
    </vehicle>
    <vehicle id="f_0.15" depart="30.00">
        <route edges="E89 E68 E11 E11.291 E11.459 E14 E16 E18 E2 E2.343 E2.599 E13 E21"/>
    </vehicle>
    <vehicle id="f_1.7" depart="31.50">
        <route edges="E54 E71.845 E71.1189 E71.1189.1353 E71.1189.1656 E94 E103 E99 E37 E37.815 E37.1085 E47 E49 E48 E21"/>
    </vehicle>
    <vehicle id="f_0.16" depart="32.00">
        <route edges="E89 E68 E11 E11.291 E11.459 E14 E16 E18 E2 E2.343 E2.599 E13 E21"/>
    </vehicle>
    <vehicle id="f_0.17" depart="34.00">
        <route edges="E89 E68 E11 E11.291 E11.459 E14 E16 E18 E2 E2.343 E2.599 E13 E21"/>
    </vehicle>
    <vehicle id="f_0.18" depart="36.00">
        <route edges="E89 E68 E11 E11.291 E11.459 E14 E16 E18 E2 E2.343 E2.599 E13 E21"/>
    </vehicle>
    <vehicle id="f_1.8" depart="36.00">
        <route edges="E54 E71.845 E71.1189 E71.1189.1353 E71.1189.1656 E94 E103 E99 E37 E37.815 E37.1085 E47 E49 E48 E21"/>
    </vehicle>
    <vehicle id="f_0.19" depart="38.00">
        <route edges="E89 E68 E11 E11.291 E11.459 E14 E16 E18 E2 E2.343 E2.599 E13 E21"/>
    </vehicle>
    <vehicle id="f_0.20" depart="40.00">
        <route edges="E89 E68 E11 E11.291 E11.459 E14 E16 E18 E2 E2.343 E2.599 E13 E21"/>
    </vehicle>
    <vehicle id="f_1.9" depart="40.50">
        <route edges="E54 E71.845 E71.1189 E71.1189.1353 E71.1189.1656 E94 E103 E99 E37 E37.815 E37.1085 E47 E49 E48 E21"/>
    </vehicle>
    <vehicle id="f_0.21" depart="42.00">
        <route edges="E89 E68 E11 E11.291 E11.459 E14 E16 E18 E2 E2.343 E2.599 E13 E21"/>
    </vehicle>
    <vehicle id="f_0.22" depart="44.00">
        <route edges="E89 E68 E11 E11.291 E11.459 E14 E16 E18 E2 E2.343 E2.599 E13 E21"/>
    </vehicle>
    <vehicle id="f_1.10" depart="45.00">
        <route edges="E54 E71.845 E71.1189 E71.1189.1353 E71.1189.1656 E94 E103 E99 E37 E37.815 E37.1085 E47 E49 E48 E21"/>
    </vehicle>
    <vehicle id="f_0.23" depart="46.00">
        <route edges="E89 E68 E11 E11.291 E11.459 E14 E16 E18 E2 E2.343 E2.599 E13 E21"/>
    </vehicle>
    <vehicle id="f_0.24" depart="48.00">
        <route edges="E89 E68 E11 E11.291 E11.459 E14 E16 E18 E2 E2.343 E2.599 E13 E21"/>
    </vehicle>
    <vehicle id="f_1.11" depart="49.50">
        <route edges="E54 E71.845 E71.1189 E71.1189.1353 E71.1189.1656 E94 E103 E99 E37 E37.815 E37.1085 E47 E49 E48 E21"/>
    </vehicle>
    <vehicle id="f_0.25" depart="50.00">
        <route edges="E89 E68 E11 E11.291 E11.459 E14 E16 E18 E2 E2.343 E2.599 E13 E21"/>
    </vehicle>
    <vehicle id="f_0.26" depart="52.00">
        <route edges="E89 E68 E11 E11.291 E11.459 E14 E16 E18 E2 E2.343 E2.599 E13 E21"/>
    </vehicle>
    <vehicle id="f_0.27" depart="54.00">
        <route edges="E89 E68 E11 E11.291 E11.459 E14 E16 E18 E2 E2.343 E2.599 E13 E21"/>
    </vehicle>
    <vehicle id="f_1.12" depart="54.00">
        <route edges="E54 E71.845 E71.1189 E71.1189.1353 E71.1189.1656 E94 E103 E99 E37 E37.815 E37.1085 E47 E49 E48 E21"/>
    </vehicle>
    <vehicle id="f_0.28" depart="56.00">
        <route edges="E89 E68 E11 E11.291 E11.459 E14 E16 E18 E2 E2.343 E2.599 E13 E21"/>
    </vehicle>
    <vehicle id="f_0.29" depart="58.00">
        <route edges="E89 E68 E11 E11.291 E11.459 E14 E16 E18 E2 E2.343 E2.599 E13 E21"/>
    </vehicle>
    <vehicle id="f_1.13" depart="58.50">
        <route edges="E54 E71.845 E71.1189 E71.1189.1353 E71.1189.1656 E94 E103 E99 E37 E37.815 E37.1085 E47 E49 E48 E21"/>
    </vehicle>
    <vehicle id="f_0.30" depart="60.00">
        <route edges="E89 E68 E11 E11.291 E11.459 E14 E16 E18 E2 E2.343 E2.599 E13 E21"/>
    </vehicle>
    <vehicle id="f_0.31" depart="62.00">
        <route edges="E89 E68 E11 E11.291 E11.459 E14 E16 E18 E2 E2.343 E2.599 E13 E21"/>
    </vehicle>
    <vehicle id="f_1.14" depart="63.00">
        <route edges="E54 E71.845 E71.1189 E71.1189.1353 E71.1189.1656 E94 E103 E99 E37 E37.815 E37.1085 E47 E49 E48 E21"/>
    </vehicle>
    <vehicle id="f_0.32" depart="64.00">
        <route edges="E89 E68 E11 E11.291 E11.459 E14 E16 E18 E2 E2.343 E2.599 E13 E21"/>
    </vehicle>
    <vehicle id="f_0.33" depart="66.00">
        <route edges="E89 E68 E11 E11.291 E11.459 E14 E16 E18 E2 E2.343 E2.599 E13 E21"/>
    </vehicle>
    <vehicle id="f_1.15" depart="67.50">
        <route edges="E54 E71.845 E71.1189 E71.1189.1353 E71.1189.1656 E94 E103 E99 E37 E37.815 E37.1085 E47 E49 E48 E21"/>
    </vehicle>
    <vehicle id="f_0.34" depart="68.00">
        <route edges="E89 E68 E11 E11.291 E11.459 E14 E16 E18 E2 E2.343 E2.599 E13 E21"/>
    </vehicle>
    <vehicle id="f_0.35" depart="70.00">
        <route edges="E89 E68 E11 E11.291 E11.459 E14 E16 E18 E2 E2.343 E2.599 E13 E21"/>
    </vehicle>
    <vehicle id="f_0.36" depart="72.00">
        <route edges="E89 E68 E11 E11.291 E11.459 E14 E16 E18 E2 E2.343 E2.599 E13 E21"/>
    </vehicle>
    <vehicle id="f_1.16" depart="72.00">
        <route edges="E54 E71.845 E71.1189 E71.1189.1353 E71.1189.1656 E94 E103 E99 E37 E37.815 E37.1085 E47 E49 E48 E21"/>
    </vehicle>
    <vehicle id="f_0.37" depart="74.00">
        <route edges="E89 E68 E11 E11.291 E11.459 E14 E16 E18 E2 E2.343 E2.599 E13 E21"/>
    </vehicle>
    <vehicle id="f_0.38" depart="76.00">
        <route edges="E89 E68 E11 E11.291 E11.459 E14 E16 E18 E2 E2.343 E2.599 E13 E21"/>
    </vehicle>
    <vehicle id="f_1.17" depart="76.50">
        <route edges="E54 E71.845 E71.1189 E71.1189.1353 E71.1189.1656 E94 E103 E99 E37 E37.815 E37.1085 E47 E49 E48 E21"/>
    </vehicle>
    <vehicle id="f_0.39" depart="78.00">
        <route edges="E89 E68 E11 E11.291 E11.459 E14 E16 E18 E2 E2.343 E2.599 E13 E21"/>
    </vehicle>
    <vehicle id="f_0.40" depart="80.00">
        <route edges="E89 E68 E11 E11.291 E11.459 E14 E16 E18 E2 E2.343 E2.599 E13 E21"/>
    </vehicle>
    <vehicle id="f_1.18" depart="81.00">
        <route edges="E54 E71.845 E71.1189 E71.1189.1353 E71.1189.1656 E94 E103 E99 E37 E37.815 E37.1085 E47 E49 E48 E21"/>
    </vehicle>
    <vehicle id="f_0.41" depart="82.00">
        <route edges="E89 E68 E11 E11.291 E11.459 E14 E16 E18 E2 E2.343 E2.599 E13 E21"/>
    </vehicle>
    <vehicle id="f_0.42" depart="84.00">
        <route edges="E89 E68 E11 E11.291 E11.459 E14 E16 E18 E2 E2.343 E2.599 E13 E21"/>
    </vehicle>
    <vehicle id="f_1.19" depart="85.50">
        <route edges="E54 E71.845 E71.1189 E71.1189.1353 E71.1189.1656 E94 E103 E99 E37 E37.815 E37.1085 E47 E49 E48 E21"/>
    </vehicle>
    <vehicle id="f_0.43" depart="86.00">
        <route edges="E89 E68 E11 E11.291 E11.459 E14 E16 E18 E2 E2.343 E2.599 E13 E21"/>
    </vehicle>
    <vehicle id="f_0.44" depart="88.00">
        <route edges="E89 E68 E11 E11.291 E11.459 E14 E16 E18 E2 E2.343 E2.599 E13 E21"/>
    </vehicle>
    <vehicle id="f_0.45" depart="90.00">
        <route edges="E89 E68 E11 E11.291 E11.459 E14 E16 E18 E2 E2.343 E2.599 E13 E21"/>
    </vehicle>
    <vehicle id="f_1.20" depart="90.00">
        <route edges="E54 E71.845 E71.1189 E71.1189.1353 E71.1189.1656 E94 E103 E99 E37 E37.815 E37.1085 E47 E49 E48 E21"/>
    </vehicle>
    <vehicle id="f_0.46" depart="92.00">
        <route edges="E89 E68 E11 E11.291 E11.459 E14 E16 E18 E2 E2.343 E2.599 E13 E21"/>
    </vehicle>
    <vehicle id="f_0.47" depart="94.00">
        <route edges="E89 E68 E11 E11.291 E11.459 E14 E16 E18 E2 E2.343 E2.599 E13 E21"/>
    </vehicle>
    <vehicle id="f_1.21" depart="94.50">
        <route edges="E54 E71.845 E71.1189 E71.1189.1353 E71.1189.1656 E94 E103 E99 E37 E37.815 E37.1085 E47 E49 E48 E21"/>
    </vehicle>
    <vehicle id="f_0.48" depart="96.00">
        <route edges="E89 E68 E11 E11.291 E11.459 E14 E16 E18 E2 E2.343 E2.599 E13 E21"/>
    </vehicle>
    <vehicle id="f_0.49" depart="98.00">
        <route edges="E89 E68 E11 E11.291 E11.459 E14 E16 E18 E2 E2.343 E2.599 E13 E21"/>
    </vehicle>
    <vehicle id="f_1.22" depart="99.00">
        <route edges="E54 E71.845 E71.1189 E71.1189.1353 E71.1189.1656 E94 E103 E99 E37 E37.815 E37.1085 E47 E49 E48 E21"/>
    </vehicle>
    <vehicle id="f_0.50" depart="100.00">
        <route edges="E89 E68 E11 E11.291 E11.459 E14 E16 E18 E2 E2.343 E2.599 E13 E21"/>
    </vehicle>
    <vehicle id="f_0.51" depart="102.00">
        <route edges="E89 E68 E11 E11.291 E11.459 E14 E16 E18 E2 E2.343 E2.599 E13 E21"/>
    </vehicle>
    <vehicle id="f_1.23" depart="103.50">
        <route edges="E54 E71.845 E71.1189 E71.1189.1353 E71.1189.1656 E94 E103 E99 E37 E37.815 E37.1085 E47 E49 E48 E21"/>
    </vehicle>
    <vehicle id="f_0.52" depart="104.00">
        <route edges="E89 E68 E11 E11.291 E11.459 E14 E16 E18 E2 E2.343 E2.599 E13 E21"/>
    </vehicle>
    <vehicle id="f_0.53" depart="106.00">
        <route edges="E89 E68 E11 E11.291 E11.459 E14 E16 E18 E2 E2.343 E2.599 E13 E21"/>
    </vehicle>
    <vehicle id="f_0.54" depart="108.00">
        <route edges="E89 E68 E11 E11.291 E11.459 E14 E16 E18 E2 E2.343 E2.599 E13 E21"/>
    </vehicle>
    <vehicle id="f_1.24" depart="108.00">
        <route edges="E54 E71.845 E71.1189 E71.1189.1353 E71.1189.1656 E94 E103 E99 E37 E37.815 E37.1085 E47 E49 E48 E21"/>
    </vehicle>
    <vehicle id="f_0.55" depart="110.00">
        <route edges="E89 E68 E11 E11.291 E11.459 E14 E16 E18 E2 E2.343 E2.599 E13 E21"/>
    </vehicle>
    <vehicle id="f_0.56" depart="112.00">
        <route edges="E89 E68 E11 E11.291 E11.459 E14 E16 E18 E2 E2.343 E2.599 E13 E21"/>
    </vehicle>
    <vehicle id="f_1.25" depart="112.50">
        <route edges="E54 E71.845 E71.1189 E71.1189.1353 E71.1189.1656 E94 E103 E99 E37 E37.815 E37.1085 E47 E49 E48 E21"/>
    </vehicle>
    <vehicle id="f_0.57" depart="114.00">
        <route edges="E89 E68 E11 E11.291 E11.459 E14 E16 E18 E2 E2.343 E2.599 E13 E21"/>
    </vehicle>
    <vehicle id="f_0.58" depart="116.00">
        <route edges="E89 E68 E11 E11.291 E11.459 E14 E16 E18 E2 E2.343 E2.599 E13 E21"/>
    </vehicle>
    <vehicle id="f_1.26" depart="117.00">
        <route edges="E54 E71.845 E71.1189 E71.1189.1353 E71.1189.1656 E94 E103 E99 E37 E37.815 E37.1085 E47 E49 E48 E21"/>
    </vehicle>
    <vehicle id="f_0.59" depart="118.00">
        <route edges="E89 E68 E11 E11.291 E11.459 E14 E16 E18 E2 E2.343 E2.599 E13 E21"/>
    </vehicle>
    <vehicle id="f_0.60" depart="120.00">
        <route edges="E89 E68 E11 E11.291 E11.459 E14 E16 E18 E2 E2.343 E2.599 E13 E21"/>
    </vehicle>
    <vehicle id="f_1.27" depart="121.50">
        <route edges="E54 E71.845 E71.1189 E71.1189.1353 E71.1189.1656 E94 E103 E99 E37 E37.815 E37.1085 E47 E49 E48 E21"/>
    </vehicle>
    <vehicle id="f_0.61" depart="122.00">
        <route edges="E89 E68 E11 E11.291 E11.459 E14 E16 E18 E2 E2.343 E2.599 E13 E21"/>
    </vehicle>
    <vehicle id="f_0.62" depart="124.00">
        <route edges="E89 E68 E11 E11.291 E11.459 E14 E16 E18 E2 E2.343 E2.599 E13 E21"/>
    </vehicle>
    <vehicle id="f_0.63" depart="126.00">
        <route edges="E89 E68 E11 E11.291 E11.459 E14 E16 E18 E2 E2.343 E2.599 E13 E21"/>
    </vehicle>
    <vehicle id="f_1.28" depart="126.00">
        <route edges="E54 E71.845 E71.1189 E71.1189.1353 E71.1189.1656 E94 E103 E99 E37 E37.815 E37.1085 E47 E49 E48 E21"/>
    </vehicle>
    <vehicle id="f_0.64" depart="128.00">
        <route edges="E89 E68 E11 E11.291 E11.459 E14 E16 E18 E2 E2.343 E2.599 E13 E21"/>
    </vehicle>
    <vehicle id="f_0.65" depart="130.00">
        <route edges="E89 E68 E11 E11.291 E11.459 E14 E16 E18 E2 E2.343 E2.599 E13 E21"/>
    </vehicle>
    <vehicle id="f_1.29" depart="130.50">
        <route edges="E54 E71.845 E71.1189 E71.1189.1353 E71.1189.1656 E94 E103 E99 E37 E37.815 E37.1085 E47 E49 E48 E21"/>
    </vehicle>
    <vehicle id="f_0.66" depart="132.00">
        <route edges="E89 E68 E11 E11.291 E11.459 E14 E16 E18 E2 E2.343 E2.599 E13 E21"/>
    </vehicle>
    <vehicle id="f_0.67" depart="134.00">
        <route edges="E89 E68 E11 E11.291 E11.459 E14 E16 E18 E2 E2.343 E2.599 E13 E21"/>
    </vehicle>
    <vehicle id="f_1.30" depart="135.00">
        <route edges="E54 E71.845 E71.1189 E71.1189.1353 E71.1189.1656 E94 E103 E99 E37 E37.815 E37.1085 E47 E49 E48 E21"/>
    </vehicle>
    <vehicle id="f_0.68" depart="136.00">
        <route edges="E89 E68 E11 E11.291 E11.459 E14 E16 E18 E2 E2.343 E2.599 E13 E21"/>
    </vehicle>
    <vehicle id="f_0.69" depart="138.00">
        <route edges="E89 E68 E11 E11.291 E11.459 E14 E16 E18 E2 E2.343 E2.599 E13 E21"/>
    </vehicle>
    <vehicle id="f_1.31" depart="139.50">
        <route edges="E54 E71.845 E71.1189 E71.1189.1353 E71.1189.1656 E94 E103 E99 E37 E37.815 E37.1085 E47 E49 E48 E21"/>
    </vehicle>
    <vehicle id="f_0.70" depart="140.00">
        <route edges="E89 E68 E11 E11.291 E11.459 E14 E16 E18 E2 E2.343 E2.599 E13 E21"/>
    </vehicle>
    <vehicle id="f_0.71" depart="142.00">
        <route edges="E89 E68 E11 E11.291 E11.459 E14 E16 E18 E2 E2.343 E2.599 E13 E21"/>
    </vehicle>
    <vehicle id="f_0.72" depart="144.00">
        <route edges="E89 E68 E11 E11.291 E11.459 E14 E16 E18 E2 E2.343 E2.599 E13 E21"/>
    </vehicle>
    <vehicle id="f_1.32" depart="144.00">
        <route edges="E54 E71.845 E71.1189 E71.1189.1353 E71.1189.1656 E94 E103 E99 E37 E37.815 E37.1085 E47 E49 E48 E21"/>
    </vehicle>
    <vehicle id="f_0.73" depart="146.00">
        <route edges="E89 E68 E11 E11.291 E11.459 E14 E16 E18 E2 E2.343 E2.599 E13 E21"/>
    </vehicle>
    <vehicle id="f_0.74" depart="148.00">
        <route edges="E89 E68 E11 E11.291 E11.459 E14 E16 E18 E2 E2.343 E2.599 E13 E21"/>
    </vehicle>
    <vehicle id="f_1.33" depart="148.50">
        <route edges="E54 E71.845 E71.1189 E71.1189.1353 E71.1189.1656 E94 E103 E99 E37 E37.815 E37.1085 E47 E49 E48 E21"/>
    </vehicle>
    <vehicle id="f_0.75" depart="150.00">
        <route edges="E89 E68 E11 E11.291 E11.459 E14 E16 E18 E2 E2.343 E2.599 E13 E21"/>
    </vehicle>
    <vehicle id="f_0.76" depart="152.00">
        <route edges="E89 E68 E11 E11.291 E11.459 E14 E16 E18 E2 E2.343 E2.599 E13 E21"/>
    </vehicle>
    <vehicle id="f_1.34" depart="153.00">
        <route edges="E54 E71.845 E71.1189 E71.1189.1353 E71.1189.1656 E94 E103 E99 E37 E37.815 E37.1085 E47 E49 E48 E21"/>
    </vehicle>
    <vehicle id="f_0.77" depart="154.00">
        <route edges="E89 E68 E11 E11.291 E11.459 E14 E16 E18 E2 E2.343 E2.599 E13 E21"/>
    </vehicle>
    <vehicle id="f_0.78" depart="156.00">
        <route edges="E89 E68 E11 E11.291 E11.459 E14 E16 E18 E2 E2.343 E2.599 E13 E21"/>
    </vehicle>
    <vehicle id="f_1.35" depart="157.50">
        <route edges="E54 E71.845 E71.1189 E71.1189.1353 E71.1189.1656 E94 E103 E99 E37 E37.815 E37.1085 E47 E49 E48 E21"/>
    </vehicle>
    <vehicle id="f_0.79" depart="158.00">
        <route edges="E89 E68 E11 E11.291 E11.459 E14 E16 E18 E2 E2.343 E2.599 E13 E21"/>
    </vehicle>
    <vehicle id="f_0.80" depart="160.00">
        <route edges="E89 E68 E11 E11.291 E11.459 E14 E16 E18 E2 E2.343 E2.599 E13 E21"/>
    </vehicle>
    <vehicle id="f_0.81" depart="162.00">
        <route edges="E89 E68 E11 E11.291 E11.459 E14 E16 E18 E2 E2.343 E2.599 E13 E21"/>
    </vehicle>
    <vehicle id="f_1.36" depart="162.00">
        <route edges="E54 E71.845 E71.1189 E71.1189.1353 E71.1189.1656 E94 E103 E99 E37 E37.815 E37.1085 E47 E49 E48 E21"/>
    </vehicle>
    <vehicle id="f_0.82" depart="164.00">
        <route edges="E89 E68 E11 E11.291 E11.459 E14 E16 E18 E2 E2.343 E2.599 E13 E21"/>
    </vehicle>
    <vehicle id="f_0.83" depart="166.00">
        <route edges="E89 E68 E11 E11.291 E11.459 E14 E16 E18 E2 E2.343 E2.599 E13 E21"/>
    </vehicle>
    <vehicle id="f_1.37" depart="166.50">
        <route edges="E54 E71.845 E71.1189 E71.1189.1353 E71.1189.1656 E94 E103 E99 E37 E37.815 E37.1085 E47 E49 E48 E21"/>
    </vehicle>
    <vehicle id="f_0.84" depart="168.00">
        <route edges="E89 E68 E11 E11.291 E11.459 E14 E16 E18 E2 E2.343 E2.599 E13 E21"/>
    </vehicle>
    <vehicle id="f_0.85" depart="170.00">
        <route edges="E89 E68 E11 E11.291 E11.459 E14 E16 E18 E2 E2.343 E2.599 E13 E21"/>
    </vehicle>
    <vehicle id="f_1.38" depart="171.00">
        <route edges="E54 E71.845 E71.1189 E71.1189.1353 E71.1189.1656 E94 E103 E99 E37 E37.815 E37.1085 E47 E49 E48 E21"/>
    </vehicle>
    <vehicle id="f_0.86" depart="172.00">
        <route edges="E89 E68 E11 E11.291 E11.459 E14 E16 E18 E2 E2.343 E2.599 E13 E21"/>
    </vehicle>
    <vehicle id="f_0.87" depart="174.00">
        <route edges="E89 E68 E11 E11.291 E11.459 E14 E16 E18 E2 E2.343 E2.599 E13 E21"/>
    </vehicle>
    <vehicle id="f_1.39" depart="175.50">
        <route edges="E54 E71.845 E71.1189 E71.1189.1353 E71.1189.1656 E94 E103 E99 E37 E37.815 E37.1085 E47 E49 E48 E21"/>
    </vehicle>
    <vehicle id="f_0.88" depart="176.00">
        <route edges="E89 E68 E11 E11.291 E11.459 E14 E16 E18 E2 E2.343 E2.599 E13 E21"/>
    </vehicle>
    <vehicle id="f_0.89" depart="178.00">
        <route edges="E89 E68 E11 E11.291 E11.459 E14 E16 E18 E2 E2.343 E2.599 E13 E21"/>
    </vehicle>
    <vehicle id="f_0.90" depart="180.00">
        <route edges="E89 E68 E11 E11.291 E11.459 E14 E16 E18 E2 E2.343 E2.599 E13 E21"/>
    </vehicle>
    <vehicle id="f_1.40" depart="180.00">
        <route edges="E54 E71.845 E71.1189 E71.1189.1353 E71.1189.1656 E94 E103 E99 E37 E37.815 E37.1085 E47 E49 E48 E21"/>
    </vehicle>
    <vehicle id="f_0.91" depart="182.00">
        <route edges="E89 E68 E11 E11.291 E11.459 E14 E16 E18 E2 E2.343 E2.599 E13 E21"/>
    </vehicle>
    <vehicle id="f_0.92" depart="184.00">
        <route edges="E89 E68 E11 E11.291 E11.459 E14 E16 E18 E2 E2.343 E2.599 E13 E21"/>
    </vehicle>
    <vehicle id="f_1.41" depart="184.50">
        <route edges="E54 E71.845 E71.1189 E71.1189.1353 E71.1189.1656 E94 E103 E99 E37 E37.815 E37.1085 E47 E49 E48 E21"/>
    </vehicle>
    <vehicle id="f_0.93" depart="186.00">
        <route edges="E89 E68 E11 E11.291 E11.459 E14 E16 E18 E2 E2.343 E2.599 E13 E21"/>
    </vehicle>
    <vehicle id="f_0.94" depart="188.00">
        <route edges="E89 E68 E11 E11.291 E11.459 E14 E16 E18 E2 E2.343 E2.599 E13 E21"/>
    </vehicle>
    <vehicle id="f_1.42" depart="189.00">
        <route edges="E54 E71.845 E71.1189 E71.1189.1353 E71.1189.1656 E94 E103 E99 E37 E37.815 E37.1085 E47 E49 E48 E21"/>
    </vehicle>
    <vehicle id="f_0.95" depart="190.00">
        <route edges="E89 E68 E11 E11.291 E11.459 E14 E16 E18 E2 E2.343 E2.599 E13 E21"/>
    </vehicle>
    <vehicle id="f_0.96" depart="192.00">
        <route edges="E89 E68 E11 E11.291 E11.459 E14 E16 E18 E2 E2.343 E2.599 E13 E21"/>
    </vehicle>
    <vehicle id="f_1.43" depart="193.50">
        <route edges="E54 E71.845 E71.1189 E71.1189.1353 E71.1189.1656 E94 E103 E99 E37 E37.815 E37.1085 E47 E49 E48 E21"/>
    </vehicle>
    <vehicle id="f_0.97" depart="194.00">
        <route edges="E89 E68 E11 E11.291 E11.459 E14 E16 E18 E2 E2.343 E2.599 E13 E21"/>
    </vehicle>
    <vehicle id="f_0.98" depart="196.00">
        <route edges="E89 E68 E11 E11.291 E11.459 E14 E16 E18 E2 E2.343 E2.599 E13 E21"/>
    </vehicle>
    <vehicle id="f_0.99" depart="198.00">
        <route edges="E89 E68 E11 E11.291 E11.459 E14 E16 E18 E2 E2.343 E2.599 E13 E21"/>
    </vehicle>
    <vehicle id="f_1.44" depart="198.00">
        <route edges="E54 E71.845 E71.1189 E71.1189.1353 E71.1189.1656 E94 E103 E99 E37 E37.815 E37.1085 E47 E49 E48 E21"/>
    </vehicle>
    <vehicle id="f_0.100" depart="200.00">
        <route edges="E89 E68 E11 E11.291 E11.459 E14 E16 E18 E2 E2.343 E2.599 E13 E21"/>
    </vehicle>
    <vehicle id="f_0.101" depart="202.00">
        <route edges="E89 E68 E11 E11.291 E11.459 E14 E16 E18 E2 E2.343 E2.599 E13 E21"/>
    </vehicle>
    <vehicle id="f_1.45" depart="202.50">
        <route edges="E54 E71.845 E71.1189 E71.1189.1353 E71.1189.1656 E94 E103 E99 E37 E37.815 E37.1085 E47 E49 E48 E21"/>
    </vehicle>
    <vehicle id="f_0.102" depart="204.00">
        <route edges="E89 E68 E11 E11.291 E11.459 E14 E16 E18 E2 E2.343 E2.599 E13 E21"/>
    </vehicle>
    <vehicle id="f_0.103" depart="206.00">
        <route edges="E89 E68 E11 E11.291 E11.459 E14 E16 E18 E2 E2.343 E2.599 E13 E21"/>
    </vehicle>
    <vehicle id="f_1.46" depart="207.00">
        <route edges="E54 E71.845 E71.1189 E71.1189.1353 E71.1189.1656 E94 E103 E99 E37 E37.815 E37.1085 E47 E49 E48 E21"/>
    </vehicle>
    <vehicle id="f_0.104" depart="208.00">
        <route edges="E89 E68 E11 E11.291 E11.459 E14 E16 E18 E2 E2.343 E2.599 E13 E21"/>
    </vehicle>
    <vehicle id="f_0.105" depart="210.00">
        <route edges="E89 E68 E11 E11.291 E11.459 E14 E16 E18 E2 E2.343 E2.599 E13 E21"/>
    </vehicle>
    <vehicle id="f_1.47" depart="211.50">
        <route edges="E54 E71.845 E71.1189 E71.1189.1353 E71.1189.1656 E94 E103 E99 E37 E37.815 E37.1085 E47 E49 E48 E21"/>
    </vehicle>
    <vehicle id="f_0.106" depart="212.00">
        <route edges="E89 E68 E11 E11.291 E11.459 E14 E16 E18 E2 E2.343 E2.599 E13 E21"/>
    </vehicle>
    <vehicle id="f_0.107" depart="214.00">
        <route edges="E89 E68 E11 E11.291 E11.459 E14 E16 E18 E2 E2.343 E2.599 E13 E21"/>
    </vehicle>
    <vehicle id="f_0.108" depart="216.00">
        <route edges="E89 E68 E11 E11.291 E11.459 E14 E16 E18 E2 E2.343 E2.599 E13 E21"/>
    </vehicle>
    <vehicle id="f_1.48" depart="216.00">
        <route edges="E54 E71.845 E71.1189 E71.1189.1353 E71.1189.1656 E94 E103 E99 E37 E37.815 E37.1085 E47 E49 E48 E21"/>
    </vehicle>
    <vehicle id="f_0.109" depart="218.00">
        <route edges="E89 E68 E11 E11.291 E11.459 E14 E16 E18 E2 E2.343 E2.599 E13 E21"/>
    </vehicle>
    <vehicle id="f_0.110" depart="220.00">
        <route edges="E89 E68 E11 E11.291 E11.459 E14 E16 E18 E2 E2.343 E2.599 E13 E21"/>
    </vehicle>
    <vehicle id="f_1.49" depart="220.50">
        <route edges="E54 E71.845 E71.1189 E71.1189.1353 E71.1189.1656 E94 E103 E99 E37 E37.815 E37.1085 E47 E49 E48 E21"/>
    </vehicle>
    <vehicle id="f_0.111" depart="222.00">
        <route edges="E89 E68 E11 E11.291 E11.459 E14 E16 E18 E2 E2.343 E2.599 E13 E21"/>
    </vehicle>
    <vehicle id="f_0.112" depart="224.00">
        <route edges="E89 E68 E11 E11.291 E11.459 E14 E16 E18 E2 E2.343 E2.599 E13 E21"/>
    </vehicle>
    <vehicle id="f_1.50" depart="225.00">
        <route edges="E54 E71.845 E71.1189 E71.1189.1353 E71.1189.1656 E94 E103 E99 E37 E37.815 E37.1085 E47 E49 E48 E21"/>
    </vehicle>
    <vehicle id="f_0.113" depart="226.00">
        <route edges="E89 E68 E11 E11.291 E11.459 E14 E16 E18 E2 E2.343 E2.599 E13 E21"/>
    </vehicle>
    <vehicle id="f_0.114" depart="228.00">
        <route edges="E89 E68 E11 E11.291 E11.459 E14 E16 E18 E2 E2.343 E2.599 E13 E21"/>
    </vehicle>
    <vehicle id="f_1.51" depart="229.50">
        <route edges="E54 E71.845 E71.1189 E71.1189.1353 E71.1189.1656 E94 E103 E99 E37 E37.815 E37.1085 E47 E49 E48 E21"/>
    </vehicle>
    <vehicle id="f_0.115" depart="230.00">
        <route edges="E89 E68 E11 E11.291 E11.459 E14 E16 E18 E2 E2.343 E2.599 E13 E21"/>
    </vehicle>
    <vehicle id="f_0.116" depart="232.00">
        <route edges="E89 E68 E11 E11.291 E11.459 E14 E16 E18 E2 E2.343 E2.599 E13 E21"/>
    </vehicle>
    <vehicle id="f_0.117" depart="234.00">
        <route edges="E89 E68 E11 E11.291 E11.459 E14 E16 E18 E2 E2.343 E2.599 E13 E21"/>
    </vehicle>
    <vehicle id="f_1.52" depart="234.00">
        <route edges="E54 E71.845 E71.1189 E71.1189.1353 E71.1189.1656 E94 E103 E99 E37 E37.815 E37.1085 E47 E49 E48 E21"/>
    </vehicle>
    <vehicle id="f_0.118" depart="236.00">
        <route edges="E89 E68 E11 E11.291 E11.459 E14 E16 E18 E2 E2.343 E2.599 E13 E21"/>
    </vehicle>
    <vehicle id="f_0.119" depart="238.00">
        <route edges="E89 E68 E11 E11.291 E11.459 E14 E16 E18 E2 E2.343 E2.599 E13 E21"/>
    </vehicle>
    <vehicle id="f_1.53" depart="238.50">
        <route edges="E54 E71.845 E71.1189 E71.1189.1353 E71.1189.1656 E94 E103 E99 E37 E37.815 E37.1085 E47 E49 E48 E21"/>
    </vehicle>
    <vehicle id="f_0.120" depart="240.00">
        <route edges="E89 E68 E11 E11.291 E11.459 E14 E16 E18 E2 E2.343 E2.599 E13 E21"/>
    </vehicle>
    <vehicle id="f_0.121" depart="242.00">
        <route edges="E89 E68 E11 E11.291 E11.459 E14 E16 E18 E2 E2.343 E2.599 E13 E21"/>
    </vehicle>
    <vehicle id="f_1.54" depart="243.00">
        <route edges="E54 E71.845 E71.1189 E71.1189.1353 E71.1189.1656 E94 E103 E99 E37 E37.815 E37.1085 E47 E49 E48 E21"/>
    </vehicle>
    <vehicle id="f_0.122" depart="244.00">
        <route edges="E89 E68 E11 E11.291 E11.459 E14 E16 E18 E2 E2.343 E2.599 E13 E21"/>
    </vehicle>
    <vehicle id="f_0.123" depart="246.00">
        <route edges="E89 E68 E11 E11.291 E11.459 E14 E16 E18 E2 E2.343 E2.599 E13 E21"/>
    </vehicle>
    <vehicle id="f_1.55" depart="247.50">
        <route edges="E54 E71.845 E71.1189 E71.1189.1353 E71.1189.1656 E94 E103 E99 E37 E37.815 E37.1085 E47 E49 E48 E21"/>
    </vehicle>
    <vehicle id="f_0.124" depart="248.00">
        <route edges="E89 E68 E11 E11.291 E11.459 E14 E16 E18 E2 E2.343 E2.599 E13 E21"/>
    </vehicle>
    <vehicle id="f_0.125" depart="250.00">
        <route edges="E89 E68 E11 E11.291 E11.459 E14 E16 E18 E2 E2.343 E2.599 E13 E21"/>
    </vehicle>
    <vehicle id="f_0.126" depart="252.00">
        <route edges="E89 E68 E11 E11.291 E11.459 E14 E16 E18 E2 E2.343 E2.599 E13 E21"/>
    </vehicle>
    <vehicle id="f_1.56" depart="252.00">
        <route edges="E54 E71.845 E71.1189 E71.1189.1353 E71.1189.1656 E94 E103 E99 E37 E37.815 E37.1085 E47 E49 E48 E21"/>
    </vehicle>
    <vehicle id="f_0.127" depart="254.00">
        <route edges="E89 E68 E11 E11.291 E11.459 E14 E16 E18 E2 E2.343 E2.599 E13 E21"/>
    </vehicle>
    <vehicle id="f_0.128" depart="256.00">
        <route edges="E89 E68 E11 E11.291 E11.459 E14 E16 E18 E2 E2.343 E2.599 E13 E21"/>
    </vehicle>